* File: acc_min_max.pex.sp.pex
* Created: Tue Jan 16 15:28:05 2024
* Program "Calibre xRC"
* Version "v2016.4_15.11"
* Nominal Temperature: 27C
* Circuit Temperature: 27C
* 
.subckt PM_ACC_MIN_MAX_VDD 6270 6271 6272 6273 6274 6275 6276 6277 6278 6279
+ 6280 6281 6282 6283 6284 6285 6286 6287 6288 6289 6290 6291 6292 6293 6294
+ 6295 6296 6297 6298 6299 6300 6301 6302 6303 6304 6305 6306 6307 6308 6309
+ 6310 6311 6312 6313 6314 6315 6316 6317 6318 6319 6320 6321 6322 6323 6324
+ 6325 6326 6327 6328 6329 6330 6331 6332 6333 6334 6335 6336 6337 6338 6339
+ 6340 6341 6342 6343 6344 6345 6346 6347 6348 6349 6350 6351 6352 6353 6354
+ 6355 6356 6357 6358 6359 6360 6361 6362 6363 6364 6365 6366 6367 6368 6369
+ 6370 6371 6372 6373 6374 6375 6376 6377 6378 6379 6380 6381 6382 6383 6384
+ 6385 6386 6387 6388 6389 6390 6391 6392 6393 6394 6395 6396 6397 6398 6399
+ 6400 6401 6402 6403 6404 6405 6406 6407 6408 6409 6410 6411 6416 6421 6426
+ 6431 6436 6441 6446 6451 6456 6461 6466 6471 6476 6481 6486 6491 6496 6501
+ 6506 6511 6516 6521 6526 6531 6536 6541 6546 6551 6556 6561 6566 6571 6576
+ 6581 6586 6591 6596 6601 6606 6611 6616 6621 6626 6631 6636 6641 6646 6651
+ 6656 6661 6666 6671 6676 6681 6686 6691 6696 6701 6706 6711 6716 6721 6726
+ 6731 6736 6741 6746 6751 6756 6761 6766 6771 6776 6781 6786 6791 6796 6801
+ 6806 6811 6816 6821 6826 6831 6836 6841 6846 6851 6856 6861 6866 6871 6876
+ 6881 6886 6891 6896 6901 6906 6911 6916 6921 6926 6931 6936 6941 6946 6951
+ 6956 6961 6966 6971 6976 6981 6986 6991 6996 7001 7006 7011 7016 7021 7026
+ 7031 7036 7041 7046 7051 7056 7061 7066 7071 7076 7081 7086 7091 7096 7101
+ 7106 7111 7116 7121 7126 7131 7136 7141 7146 7151 7156 7161 7166 7171 7176
+ 7181 7186 7191 7196 7201 7206 7211 7216 7221 7226 7231 7236 7241 7246 7251
+ 7256 7261 7266 7271 7276 7281 7286 7291 7296 7301 7306 7311 7316 7321 7326
+ 7331 7336 7341 7346 7351 7356 7361 7366 7371 7376 7381 7386 7391 7396 7401
+ 7406 7411 7416 7421 7426 7431 7436 7441 7446 7451 7456 7461 7466 7471 7476
+ 7481 7486 7491 7496 7501 7506 7511 7516 7521 7526 7531 7536 7541 7546 7551
+ 7556 7561 7566 7571 7576 7581 7586 7591 7596 7601 7606 7611 7616 7621 7626
+ 7631 7636 7641 7646 7651 7656 7661 7666 7671 7676 7681 7686 7691 7696 7701
+ 7706 7711 7716 7721 7726 7731 7736 7741 7746 7751 7756 7761 7766 7771 7776
+ 7781 7786 7791 7796 7801 7806 7811 7816 7821 7826 7831 7836 7841 7846 7851
+ 7856 7861 7866 7871 7876 7881 7886 7891 7896 7901 7906 7911 7916 7921 7926
+ 7931 7936 7941 7946 7951 7956 7961 7966 7971 7976 7981 7986 7991 7996 8001
+ 8006 8011 8016 8021 8026 8031 8036 8041 8046 8051 8056 8061 8066 8071 8076
+ 8081 8086 8091 8096 8101 8106 8111 8116 8121 8126 8131 8136 8141 8146 8151
+ 8156 8161 8166 8171 8176 8181 8186 8191 8196 8201 8206 8211 8216 8221 8226
+ 8231 8236 8241 8246 8251 8256 8261 8266 8271 8276 8281 8286 8291 8296 8301
+ 8306 8311 8316 8321 8326 8331 8336 8341 8346 8351 8356 8361 8366 8371 8376
+ 8381 8386 8391 8396 8401 8406 8411 8416 8421 8426 8431 8436 8441 8446 8451
+ 8456 8461 8466 8471 8476 8481 8486 8491 8496 8501 8506 8511 8516 8521 8526
+ 8531 8536 8541 8546 8551 8556 8561 8566 8571 8576 8581 8586 8591 8596 8601
+ 8606 8611 8616 8621 8626 8631 8636 8641 8646 8651 8656 8661 8666 8671 8676
+ 8681 8686 8691 8696 8701 8706 8711 8716 8721 8726 8731 8736 8741 8746 8751
+ 8756 8761 8766 8771 8776 8781 8786 8791 8796 8801 8806 8811 8816 8821 8826
+ 8831 8836 8841 8846 8851 8856 8861 8866 8871 8876 8881 8886 8891 8896 8901
+ 8906 8911 8916 8921 8926 8931 8936 8941 8946 8951 8956 8961 8966 8971 8976
+ 8981 8986 8991 8996 9001 9006 9011 9016 9021 9026 9031 9036 9041 9046 9051
+ 9056 9061 9066 9071 9076 9081 9086 9091 9096 9101 9106 9111 9116 9121 9126
+ 9131 9136 9141 9146 9151 9156 9161 9166 9171 9176 9181 9186 9191 9196 9201
+ 9206 9211 9216 9221 9226 9231 9236 9241 9246 9251 9256 9261 9266 9271 9276
+ 9281 9286 9291 9296 9301 9306 9311 9316 9321 9326 9331 9336 9341 9346 9351
+ 9356 9361 9366 9371 9376 9381 9386 9391 9396 9401 9406 9411 9416 9421 9426
+ 9431 9436 9441 9446 9451 9456 9461 9466 9471 9476 9481 9486 9491 9496 9501
+ 9506 9511 9516 9521 9526 9531 9536 9541 9546 9551 9556 9561 9566 9571 9576
+ 9581 9586 9591 9596 9601 9606 9611 9616 9621 9626 9631 9636 9641 9646 9651
+ 9656 9661 9666 9671 9676 9681 9686 9691 9696 9701 9706 9711 9716 9721 9726
+ 9731 9736 9741 9746 9751 9756 9761 9766 9771 9776 9781 9786 9791 9796 9801
+ 9806 9811 9816 9821 9826 9831 9836 9841 9846 9851 9856 9861 9866 9871 9876
+ 9881 9886 9891 9896 9901 9906 9911 9916 9921 9926 9931 9936 9941 9946 9951
+ 9956 9961 9966 9971 9976 9981 9986 9991 9996 10001 10006 10011 10016 10021
+ 10026 10031 10036 10041 10046 10051 10056 10061 10066 10071 10076 10081 10086
+ 10091 10096 10101 10106 10111 10116 10121 10126 10131 10136 10141 10146 10151
+ 10156 10161 10166 10171 10176 10181 10186 10191 10196 10201 10206 10211 10216
+ 10221 10226 10231 10236 10241 10246 10251 10256 10261 10266 10271 10276 10281
+ 10286 10291 10296 10301 10306 10311 10316 10321 10326 10331 10336 10341 10346
+ 10351 10356 10361 10366 10371 10376 10381 10386 10391 10396 10401 10406 10411
+ 10416 10421 10426 10431 10436 10441 10446 10451 10456 10461 10466 10471 10476
+ 10481 10486 10491 10496 10501 10506 10511 10516 10521 10526 10531 10536 10541
+ 10546 10551 10556 10561 10566 10571 10576 10581 10586 10591 10596 10601 10606
+ 10611 10616 10621 10626 10631 10636 10641 10646 10651 10656 10661 10666 10671
+ 10676 10681 10686 10691 10696 10701 10706 10711 10716 10721 10726 10731 10736
+ 10741 10746 10751 10756 10761 10766 10771 10776 10781 10786 10791 10796 10801
+ 10806 10811 10816 10821 10826 10831 10836 10841 10846 10851 10856 10861 10866
+ 10871 10876 10881 10886 10891 10896 10901 10906 10911 10916 10921 10926 10931
+ 10936 10941 10946 10951 10956 10961 10966 10971 10976 10981 10986 10991 10996
+ 11001 11006 11011 11016 11021 11026 11031 11036 11041 11046 11051 11056 11061
+ 11066 11071 11076 11081 11086 11091 11096 11101 11106 11111 11116 11121 11126
+ 11131 11136 11141 11146 11151 11156 11161 11166 11171 11176 11181 11186 11191
+ 11196 11201 11206 11211 11216 11221 11226 11231 11236 11241 11246 11251 11256
+ 11261 11266 11271 11276 11281 11286 11291 11296 11301 11306 11311 11316 11321
+ 11326 11331 11336 11341 11346 11351 11356 11361 11366 11371 11376 11381 11386
+ 11391 11396 11401 11406 11411 11416 11421 11426 11431 11436 11441 11446 11451
+ 11456 11461 11466 11471 11476 11481 11486 11491 11496 11501 11506 11511 11516
+ 11521 11526 11531 11536 11541 11546 11551 11556 11561 11566 11571 11576 11581
+ 11586 11591 11596 11601 11606 11611 11616 11621 11626 11631 11636 11641 11646
+ 11651 11656 11661 11666 11671 11676 11681 11686 11691 11696 11701 11706 11711
+ 11716 11721 11726 11731 11736 11741 11746 11751 11756 11761 11766 11771 11776
+ 11781 11786 11791 11796 11801 11806 11811 11816 11821 11826 11831 11836 11841
+ 11846 11851 11856 11861 11866 11871 11876 11881 11886 11891 11896 11901 11906
+ 11911 11916 11921 11926 11931 11936 11941 11946 11951 11956 11961 11966 11971
+ 11976 11981 11986 11991 11996 12001 12006 12011 12016 12021 12026 12031 12036
+ 12041 12046 12051 12056 12061 12066 12071 12076 12081 12086 12091 12096 12101
+ 12106 12111 12116 12121 12126 12131 12136 12141 12146 12151 12156 12161 12166
+ 12171 12176 12181 12186 12191 12196 12201 12206 12211 12216 12221 12226 12231
+ 12236 12241 12246 12251 12256 12261 12266 12271 12276 12281 12286 12291 12296
+ 12301 12306 12311 12316 12321 12326 12331 12336 12341 12346 12351 12356 12361
+ 12366 12371 12376 12381 12386 12391 12396 12401 12406 12411 12416 12421 12426
+ 12431 12436 12441 12446 12451 12456 12461 12466 12471 12476 12481 12486 12491
+ 12496 12501 12506 12511 12516 12521 12526 12531 12536 12541 12546 12551 12556
+ 12561 12566 12571 12576 12581 12586 12591 12596 12601 12606 12611 12616 12621
+ 12626 12631 12636 12641 12646 12651 12656 12661 12666 12671 12676 12681 12686
+ 12691 12696 12701 12706 12711 12716 12721 12726 12731 12736 12741 12746 12751
+ 12756 12761 12766 12771 12776 12781 12786 12791 12796 12801 12806 12811 12816
+ 12821 12826 12831 12836 12841 12846 12851 12856 12861 12866 12871 12876 12881
+ 12886 12891 12896 12901 12906 12911 12916 12921 12926 12931 12936 12941 12946
+ 12951 12956 12961 12966 12971 12976 12981 12986 12991 12996 13001 13006 13011
+ 13016 13021 13026 13031 13036 13041 13046 13051 13056 13061 13066 13071 13076
+ 13081 13086 13091 13096 13101 13106 13111 13116 13121 13126 13131 13136 13141
+ 13146 13151 13156 13161 13166 13171 13176 13181 13186 13191 13196 13201 13206
+ 13211 13216 13221 13226 13231 13236 13241 13246 13251 13256 13261 13266 13271
+ 13276 13281 13286 13291 13296 13301 13306 13311 13316 13321 13326 13331 13336
+ 13341 13346 13351 13356 13361 13366 13371 13376 13381 13386 13391 13396 13401
+ 13406 13411 13416 13421 13426 13431 13436 13441 13446 13451 13456 13461 13466
+ 13471 13476 13481 13486 13491 13496 13501 13506 13511 13516 13521 13526 13531
+ 13536 13541 13546 13551 13556 13561 13566 13571 13576 13581 13586 13591 13596
+ 13601 13606 13611 13616 13621 13626 13631 27738
c0 27877 0 0.00234878f
c1 27876 0 0.00294745f
c2 27872 0 0.0246202f
c3 27871 0 0.028391f
c4 27867 0 0.0152661f
c5 27866 0 0.005659f
c6 27862 0 4.94088e-22
c7 27861 0 0.00556415f
c8 27857 0 0.00506885f
c9 27856 0 0.0187045f
c10 27852 0 4.931e-19
c11 27851 0 0.0101011f
c12 27847 0 5.37823e-19
c13 27846 0 0.0145417f
c14 27842 0 5.06713e-19
c15 27841 0 0.00635828f
c16 27837 0 5.14919e-19
c17 27836 0 0.0127109f
c18 27832 0 0.00515386f
c19 27831 0 0.0139737f
c20 27827 0 5.14664e-19
c21 27826 0 0.0113766f
c22 27822 0 0.00519764f
c23 27821 0 0.0285923f
c24 27817 0 5.31237e-19
c25 27816 0 0.0152375f
c26 27812 0 0.00965213f
c27 27811 0 0.0221246f
c28 27807 0 5.36678e-19
c29 27806 0 0.0129352f
c30 27802 0 0.00526265f
c31 27801 0 0.00547379f
c32 27797 0 5.37454e-19
c33 27796 0 0.0110164f
c34 27792 0 5.52993e-19
c35 27791 0 0.0141443f
c36 27787 0 5.14212e-22
c37 27786 0 2.16153e-19
c38 27782 0 5.44766e-19
c39 27781 0 0.00154938f
c40 27777 0 0.0122004f
c41 27776 0 0.0122806f
c42 27772 0 0.0105403f
c43 27771 0 0.0137573f
c44 27762 0 0.00229305f
c45 27761 0 0.0145896f
c46 27755 0 0.558712f
c47 27749 0 0.38537f
c48 27743 0 0.150224f
c49 27733 0 0.383504f
c50 27729 0 0.597146f
c51 27714 0 5.01498f
c52 27699 0 4.86668f
c53 27680 0 4.916f
c54 27671 0 0.980361f
c55 24778 0 0.481842f
c56 24769 0 0.488545f
c57 24764 0 0.488545f
c58 24759 0 0.488545f
c59 24754 0 0.488545f
c60 24749 0 0.488545f
c61 24744 0 0.488545f
c62 24739 0 0.488545f
c63 24734 0 0.488545f
c64 24729 0 0.488545f
c65 24720 0 0.488545f
c66 24714 0 0.0176807f
c67 24675 0 0.0562861f
c68 24640 0 0.0188931f
c69 24602 0 0.0672033f
c70 24600 0 0.0548807f
c71 24598 0 0.0633183f
c72 24596 0 0.0616101f
c73 24594 0 0.0615156f
c74 24592 0 0.0617266f
c75 24590 0 0.0616102f
c76 24588 0 0.0615911f
c77 24586 0 0.0616294f
c78 24584 0 0.0616102f
c79 24582 0 0.0616102f
c80 24580 0 0.0616103f
c81 24578 0 0.0616103f
c82 24576 0 0.0616295f
c83 24538 0 0.0758521f
c84 24528 0 0.141925f
c85 24526 0 0.144823f
c86 24524 0 0.144823f
c87 24522 0 0.144823f
c88 24520 0 0.144823f
c89 24518 0 0.144823f
c90 24516 0 0.144823f
c91 24514 0 0.144823f
c92 24512 0 0.144823f
c93 24510 0 0.144823f
c94 24508 0 0.144823f
c95 24506 0 0.144823f
c96 24503 0 0.144823f
c97 23895 0 0.489246f
c98 23892 0 0.335121f
c99 23889 0 0.312855f
c100 23886 0 0.324403f
c101 23883 0 0.300924f
c102 23880 0 0.277137f
c103 23877 0 0.310703f
c104 23874 0 0.283688f
c105 23871 0 0.318947f
c106 23868 0 0.306199f
c107 23865 0 0.301946f
c108 23862 0 0.315475f
c109 23859 0 0.307732f
c110 23856 0 0.316072f
c111 23853 0 0.299529f
c112 23850 0 0.256105f
c113 21680 0 0.151691f
c114 21674 0 0.0682262f
c115 21668 0 0.151562f
c116 21662 0 0.0682725f
c117 21656 0 0.152908f
c118 21650 0 0.068119f
c119 21644 0 0.15239f
c120 21638 0 0.0681702f
c121 21632 0 0.15155f
c122 21626 0 0.0682725f
c123 21620 0 0.152811f
c124 21614 0 0.068119f
c125 21608 0 0.151099f
c126 21602 0 0.0683236f
c127 21596 0 0.152876f
c128 21590 0 0.068119f
c129 21584 0 0.15284f
c130 21578 0 0.068119f
c131 21572 0 0.153741f
c132 21566 0 0.0680167f
c133 21560 0 0.154191f
c134 21554 0 0.0679656f
c135 21548 0 0.160836f
c136 21542 0 0.0671206f
c137 21536 0 0.152817f
c138 21530 0 0.068119f
c139 21524 0 0.153243f
c140 21518 0 0.0680679f
c141 21512 0 0.153219f
c142 21506 0 0.0680679f
c143 21500 0 0.154131f
c144 21494 0 0.205039f
c145 21488 0 0.105062f
c146 21284 0 0.10461f
c147 21278 0 0.103389f
c148 21272 0 0.0973523f
c149 21266 0 0.0978817f
c150 21260 0 0.0981286f
c151 21254 0 0.10198f
c152 21248 0 0.0979711f
c153 21242 0 0.101697f
c154 21236 0 0.102088f
c155 21230 0 0.101395f
c156 21224 0 0.101919f
c157 21218 0 0.101842f
c158 21212 0 0.0978781f
c159 21206 0 0.10181f
c160 20912 0 5.46908e-19
c161 20906 0 0.00799924f
c162 20900 0 0.0123796f
c163 20894 0 0.00933816f
c164 20888 0 0.0122686f
c165 20882 0 0.0120653f
c166 20876 0 0.0103186f
c167 20870 0 0.0124224f
c168 20864 0 0.0103826f
c169 20858 0 0.0104833f
c170 20852 0 0.00997497f
c171 20846 0 0.0103497f
c172 20840 0 0.0101464f
c173 20834 0 0.00913557f
c174 20828 0 0.0102813f
c175 20816 0 0.0122218f
c176 19184 0 0.15473f
c177 19178 0 0.228126f
c178 19172 0 0.554331f
c179 19166 0 0.190903f
c180 19160 0 0.531012f
c181 19154 0 0.19113f
c182 19148 0 0.523088f
c183 19142 0 0.195517f
c184 19136 0 0.532767f
c185 19130 0 0.190903f
c186 19124 0 0.534177f
c187 19118 0 0.170513f
c188 19112 0 0.537653f
c189 19106 0 0.166252f
c190 19100 0 0.523067f
c191 19094 0 0.191275f
c192 19088 0 0.533773f
c193 19082 0 0.174427f
c194 19076 0 0.526767f
c195 19070 0 0.19382f
c196 19064 0 0.540137f
c197 19058 0 0.168578f
c198 19052 0 0.522187f
c199 19046 0 0.194161f
c200 19040 0 0.544275f
c201 19034 0 0.167423f
c202 19028 0 0.523766f
c203 19022 0 0.194668f
c204 19016 0 0.531278f
c205 19010 0 0.172697f
c206 19004 0 0.505801f
c207 18998 0 0.0533459f
c208 18992 0 0.136473f
c209 18986 0 0.0200211f
c210 18980 0 6.45728e-19
c211 18974 0 6.22338e-19
c212 18968 0 6.10961e-19
c213 18962 0 6.22338e-19
c214 18956 0 6.06468e-19
c215 18950 0 0.00161312f
c216 18944 0 6.04234e-19
c217 18938 0 7.12825e-19
c218 18932 0 6.10961e-19
c219 18926 0 0.00107938f
c220 18920 0 6.17762e-19
c221 18914 0 0.00134166f
c222 18908 0 6.04234e-19
c223 18902 0 6.9472e-19
c224 18896 0 0.00113774f
c225 18794 0 0.0715233f
c226 18788 0 0.107066f
c227 18782 0 0.107384f
c228 18776 0 0.100149f
c229 18770 0 0.102205f
c230 18764 0 0.10112f
c231 18758 0 0.10211f
c232 18752 0 0.102256f
c233 18746 0 0.100032f
c234 18740 0 0.0993821f
c235 18734 0 0.101296f
c236 18728 0 0.100229f
c237 18722 0 0.10125f
c238 18716 0 0.0992811f
c239 18710 0 0.0989447f
c240 18416 0 0.00754512f
c241 18410 0 0.0114045f
c242 18404 0 0.0116441f
c243 18398 0 0.0130198f
c244 18392 0 0.0120822f
c245 18386 0 0.0113831f
c246 18380 0 0.0120168f
c247 18374 0 0.0121355f
c248 18368 0 0.0129201f
c249 18362 0 0.011906f
c250 18356 0 0.0114984f
c251 18350 0 0.0104897f
c252 18344 0 0.0114414f
c253 18338 0 0.012312f
c254 18332 0 0.0116017f
c255 18320 0 0.0112752f
c256 18038 0 0.0518695f
c257 17936 0 0.179984f
c258 17930 0 0.252822f
c259 17924 0 0.385903f
c260 17918 0 0.388392f
c261 17912 0 0.366584f
c262 17906 0 0.419175f
c263 17900 0 0.41785f
c264 17894 0 0.347543f
c265 17888 0 0.388739f
c266 17882 0 0.393548f
c267 17876 0 0.353234f
c268 17870 0 0.410598f
c269 17864 0 0.364626f
c270 17858 0 0.400584f
c271 17852 0 0.380479f
c272 17846 0 0.401068f
c273 17840 0 0.391517f
c274 17834 0 0.352344f
c275 17828 0 0.340699f
c276 17822 0 0.410287f
c277 17816 0 0.304811f
c278 17810 0 0.450666f
c279 17804 0 0.335282f
c280 17798 0 0.414258f
c281 17792 0 0.336044f
c282 17786 0 0.419694f
c283 17780 0 0.350456f
c284 17774 0 0.400265f
c285 17768 0 0.323852f
c286 17762 0 0.427947f
c287 17756 0 0.367553f
c288 17750 0 0.524139f
c289 17742 0 0.3583f
c290 17736 0 0.47859f
c291 17730 0 0.485576f
c292 17724 0 0.493438f
c293 17718 0 0.493154f
c294 17712 0 0.491341f
c295 17706 0 0.491582f
c296 17700 0 0.492405f
c297 17694 0 0.493224f
c298 17688 0 0.492017f
c299 17682 0 0.491828f
c300 17676 0 0.490708f
c301 17670 0 0.492876f
c302 17664 0 0.492209f
c303 17658 0 0.492017f
c304 17652 0 0.494488f
c305 15764 0 0.0551615f
c306 15758 0 0.191681f
c307 15752 0 0.27587f
c308 15746 0 0.0899662f
c309 15644 0 0.0130836f
c310 15638 0 2.95623e-19
c311 15632 0 0.00926935f
c312 15626 0 0.00702865f
c313 15620 0 0.00693406f
c314 15614 0 0.007145f
c315 15608 0 0.00702865f
c316 15602 0 0.00913051f
c317 15596 0 0.00704783f
c318 15590 0 0.00702865f
c319 15584 0 0.00702865f
c320 15578 0 0.00702865f
c321 15572 0 0.00702865f
c322 15566 0 0.00704783f
c323 15560 0 0.0100909f
c324 13916 0 0.079765f
c325 13910 0 0.226199f
c326 13904 0 0.079765f
c327 13898 0 0.253952f
c328 13892 0 0.079765f
c329 13886 0 0.226199f
c330 13880 0 0.079765f
c331 13874 0 0.257217f
c332 13868 0 0.079765f
c333 13862 0 0.226199f
c334 13856 0 0.079765f
c335 13850 0 0.253952f
c336 13844 0 0.079765f
c337 13838 0 0.226199f
c338 13832 0 0.079765f
c339 13826 0 0.242933f
c340 13820 0 0.079765f
c341 13814 0 0.226199f
c342 13808 0 0.079765f
c343 13802 0 0.253952f
c344 13796 0 0.079765f
c345 13790 0 0.226199f
c346 13784 0 0.079765f
c347 13778 0 0.257217f
c348 13772 0 0.079765f
c349 13766 0 0.226199f
c350 13760 0 0.079765f
c351 13754 0 0.253952f
c352 13748 0 0.079765f
c353 13742 0 0.226199f
c354 13736 0 0.079765f
c355 13730 0 0.229961f
c356 13724 0 0.0652293f
c357 13710 0 0.432991f
c358 13704 0 0.0916093f
c359 13686 0 0.384796f
c360 13680 0 0.0909854f
c361 13668 0 0.437483f
c362 13662 0 0.0916093f
c363 13656 0 0.227015f
c364 13650 0 0.0802644f
c365 13644 0 0.0802644f
c366 13634 0 0.402361f
c367 13629 0 0.402361f
c368 13624 0 0.402361f
c369 13619 0 0.402361f
c370 13614 0 0.402361f
c371 13609 0 0.402361f
c372 13604 0 0.402361f
c373 13599 0 0.402361f
c374 13594 0 0.402361f
c375 13589 0 0.402361f
c376 13584 0 0.402361f
c377 13579 0 0.402361f
c378 13574 0 0.402361f
c379 13569 0 0.402361f
c380 13564 0 0.402361f
c381 13559 0 0.402361f
c382 13554 0 0.373729f
c383 13549 0 0.373729f
c384 13544 0 0.373729f
c385 13539 0 0.373729f
c386 13534 0 0.373729f
c387 13529 0 0.373729f
c388 13524 0 0.373729f
c389 13519 0 0.373729f
c390 13514 0 0.373729f
c391 13509 0 0.373729f
c392 13504 0 0.373729f
c393 13499 0 0.373729f
c394 13494 0 0.373729f
c395 13489 0 0.373729f
c396 13484 0 0.373729f
c397 13479 0 0.373729f
c398 13474 0 0.405986f
c399 13469 0 0.418584f
c400 13464 0 0.418495f
c401 13459 0 0.418495f
c402 13454 0 0.418495f
c403 13449 0 0.418495f
c404 13444 0 0.418495f
c405 13439 0 0.418495f
c406 13434 0 0.418495f
c407 13429 0 0.418495f
c408 13424 0 0.418495f
c409 13419 0 0.418495f
c410 13414 0 0.418495f
c411 13409 0 0.418495f
c412 13404 0 0.418495f
c413 13399 0 0.418495f
c414 13394 0 0.395946f
c415 13389 0 0.408543f
c416 13384 0 0.408455f
c417 13379 0 0.408455f
c418 13374 0 0.408455f
c419 13369 0 0.408455f
c420 13364 0 0.408455f
c421 13359 0 0.408455f
c422 13354 0 0.408455f
c423 13349 0 0.408455f
c424 13344 0 0.408455f
c425 13339 0 0.408455f
c426 13334 0 0.408455f
c427 13329 0 0.408455f
c428 13324 0 0.408455f
c429 13319 0 0.408455f
c430 13314 0 0.432624f
c431 13309 0 0.445221f
c432 13304 0 0.445133f
c433 13299 0 0.445133f
c434 13294 0 0.445133f
c435 13289 0 0.445133f
c436 13284 0 0.445133f
c437 13279 0 0.445133f
c438 13274 0 0.445133f
c439 13269 0 0.445133f
c440 13264 0 0.445133f
c441 13259 0 0.445133f
c442 13254 0 0.445133f
c443 13249 0 0.445133f
c444 13244 0 0.445133f
c445 13239 0 0.445133f
c446 13234 0 0.426857f
c447 13229 0 0.439455f
c448 13224 0 0.439367f
c449 13219 0 0.439367f
c450 13214 0 0.439367f
c451 13209 0 0.439367f
c452 13204 0 0.439367f
c453 13199 0 0.439367f
c454 13194 0 0.439367f
c455 13189 0 0.439367f
c456 13184 0 0.439367f
c457 13179 0 0.439367f
c458 13174 0 0.439367f
c459 13169 0 0.439367f
c460 13164 0 0.439367f
c461 13159 0 0.439367f
c462 13154 0 0.420237f
c463 13149 0 0.420237f
c464 13144 0 0.420237f
c465 13139 0 0.420237f
c466 13134 0 0.420237f
c467 13129 0 0.420237f
c468 13124 0 0.420237f
c469 13119 0 0.420237f
c470 13114 0 0.420237f
c471 13109 0 0.420237f
c472 13104 0 0.420237f
c473 13099 0 0.420237f
c474 13094 0 0.422306f
c475 13089 0 0.420237f
c476 13084 0 0.420237f
c477 13079 0 0.420237f
c478 13074 0 0.314944f
c479 13069 0 0.314944f
c480 13064 0 0.320085f
c481 13059 0 0.320085f
c482 13054 0 0.320085f
c483 13049 0 0.314944f
c484 13044 0 0.320085f
c485 13039 0 0.320085f
c486 13034 0 0.320085f
c487 13029 0 0.320085f
c488 13024 0 0.320085f
c489 13019 0 0.320085f
c490 13014 0 0.322534f
c491 13011 0 0.00176445f
c492 13009 0 0.320085f
c493 13004 0 0.320085f
c494 12999 0 0.320085f
c495 12994 0 0.285287f
c496 12989 0 0.413107f
c497 12984 0 0.434285f
c498 12981 0 0.00455529f
c499 12979 0 0.433838f
c500 12976 0 0.00464622f
c501 12974 0 0.434136f
c502 12971 0 0.00446916f
c503 12969 0 0.428741f
c504 12964 0 0.434463f
c505 12961 0 0.00430167f
c506 12959 0 0.434461f
c507 12956 0 0.00447873f
c508 12954 0 0.433794f
c509 12951 0 0.00432081f
c510 12949 0 0.432005f
c511 12946 0 0.0042921f
c512 12944 0 0.430072f
c513 12939 0 0.429612f
c514 12936 0 0.00422032f
c515 12934 0 0.431786f
c516 12931 0 0.00423467f
c517 12929 0 0.427838f
c518 12926 0 0.00441652f
c519 12924 0 0.427014f
c520 12921 0 0.00425381f
c521 12919 0 0.428465f
c522 12916 0 0.00439259f
c523 12914 0 0.226743f
c524 12913 0 3.83661e-19
c525 12909 0 0.247065f
c526 12908 0 0.0981163f
c527 12904 0 0.217341f
c528 12899 0 0.226931f
c529 12898 0 3.83661e-19
c530 12894 0 0.247253f
c531 12893 0 0.0981163f
c532 12889 0 0.21084f
c533 12884 0 0.231942f
c534 12883 0 3.83311e-19
c535 12879 0 0.247253f
c536 12878 0 0.0981163f
c537 12874 0 0.207321f
c538 12869 0 0.232217f
c539 12868 0 3.84011e-19
c540 12864 0 0.247253f
c541 12863 0 0.0981163f
c542 12859 0 0.211021f
c543 12854 0 0.23173f
c544 12853 0 3.84011e-19
c545 12849 0 0.247253f
c546 12848 0 0.0981163f
c547 12844 0 0.211099f
c548 12839 0 0.231651f
c549 12838 0 3.84711e-19
c550 12834 0 0.247253f
c551 12833 0 0.0981163f
c552 12829 0 0.211399f
c553 12824 0 0.231321f
c554 12823 0 3.84361e-19
c555 12819 0 0.247253f
c556 12818 0 0.0981163f
c557 12814 0 0.211011f
c558 12809 0 0.231765f
c559 12808 0 3.84361e-19
c560 12804 0 0.247253f
c561 12803 0 0.0981163f
c562 12799 0 0.211346f
c563 12794 0 0.231389f
c564 12793 0 3.85061e-19
c565 12789 0 0.247253f
c566 12788 0 0.0981163f
c567 12784 0 0.211432f
c568 12779 0 0.231298f
c569 12778 0 3.84361e-19
c570 12774 0 0.247253f
c571 12773 0 0.0981163f
c572 12769 0 0.212059f
c573 12764 0 0.230706f
c574 12763 0 3.84361e-19
c575 12759 0 0.247253f
c576 12758 0 0.0981163f
c577 12754 0 0.211575f
c578 12749 0 0.231271f
c579 12748 0 3.88911e-19
c580 12744 0 0.247253f
c581 12743 0 0.0981163f
c582 12739 0 0.211688f
c583 12734 0 0.231187f
c584 12733 0 3.85061e-19
c585 12729 0 0.247253f
c586 12728 0 0.0981163f
c587 12724 0 0.21116f
c588 12719 0 0.231604f
c589 12718 0 3.84361e-19
c590 12714 0 0.247253f
c591 12713 0 0.0981163f
c592 12709 0 0.211497f
c593 12704 0 0.231231f
c594 12703 0 3.85061e-19
c595 12699 0 0.247253f
c596 12698 0 0.0981163f
c597 12694 0 0.21121f
c598 12689 0 0.284175f
c599 12688 0 3.85061e-19
c600 12684 0 0.200701f
c601 12679 0 0.280727f
c602 12678 0 0.0305026f
c603 12674 0 0.248654f
c604 12671 0 0.00198523f
c605 12669 0 0.257732f
c606 12666 0 0.0010511f
c607 12664 0 0.259341f
c608 12661 0 4.55908e-19
c609 12659 0 0.257468f
c610 12654 0 0.259422f
c611 12651 0 4.46442e-19
c612 12649 0 0.259594f
c613 12646 0 4.75203e-19
c614 12644 0 0.256065f
c615 12641 0 4.53856e-19
c616 12639 0 0.259353f
c617 12636 0 4.42188e-19
c618 12634 0 0.257465f
c619 12629 0 0.255934f
c620 12626 0 4.40021e-19
c621 12624 0 0.256267f
c622 12621 0 4.65604e-19
c623 12619 0 0.255981f
c624 12616 0 4.46854e-19
c625 12614 0 0.255995f
c626 12611 0 4.69552e-19
c627 12609 0 0.25752f
c628 12604 0 0.256047f
c629 12601 0 4.43561e-19
c630 12599 0 0.259505f
c631 12596 0 4.54518e-19
c632 12594 0 0.290296f
c633 12591 0 0.00198523f
c634 12589 0 0.294438f
c635 12586 0 0.0010511f
c636 12584 0 0.295867f
c637 12581 0 4.55908e-19
c638 12579 0 0.293566f
c639 12574 0 0.296604f
c640 12571 0 4.46442e-19
c641 12569 0 0.296228f
c642 12566 0 4.75203e-19
c643 12564 0 0.293143f
c644 12561 0 4.53856e-19
c645 12559 0 0.296521f
c646 12556 0 4.42188e-19
c647 12554 0 0.293584f
c648 12549 0 0.292854f
c649 12546 0 4.40021e-19
c650 12544 0 0.293216f
c651 12541 0 4.65604e-19
c652 12539 0 0.292945f
c653 12536 0 4.46854e-19
c654 12534 0 0.293452f
c655 12531 0 4.69552e-19
c656 12529 0 0.293653f
c657 12524 0 0.292876f
c658 12521 0 4.43561e-19
c659 12519 0 0.220371f
c660 12518 0 4.54518e-19
c661 12514 0 0.197022f
c662 12511 0 0.00487052f
c663 12509 0 0.193612f
c664 12506 0 0.0039364f
c665 12504 0 0.19487f
c666 12501 0 0.0033412f
c667 12499 0 0.191724f
c668 12496 0 0.0028853f
c669 12494 0 0.195322f
c670 12491 0 0.00333174f
c671 12489 0 0.195368f
c672 12486 0 0.0033605f
c673 12484 0 0.191781f
c674 12481 0 0.00333915f
c675 12479 0 0.195194f
c676 12476 0 0.00332748f
c677 12474 0 0.191742f
c678 12471 0 0.0028853f
c679 12469 0 0.191298f
c680 12466 0 0.00332532f
c681 12464 0 0.191785f
c682 12461 0 0.0033509f
c683 12459 0 0.191435f
c684 12456 0 0.00333215f
c685 12454 0 0.192272f
c686 12451 0 0.00335485f
c687 12449 0 0.191811f
c688 12446 0 0.0028853f
c689 12444 0 0.19132f
c690 12441 0 0.00332886f
c691 12439 0 0.195282f
c692 12438 0 5.62698e-19
c693 12434 0 0.251538f
c694 12431 0 0.00487052f
c695 12429 0 0.244098f
c696 12426 0 0.0039364f
c697 12424 0 0.245411f
c698 12421 0 0.0033412f
c699 12419 0 0.242537f
c700 12416 0 0.0028853f
c701 12414 0 0.245955f
c702 12411 0 0.00333174f
c703 12409 0 0.245865f
c704 12406 0 0.0033605f
c705 12404 0 0.24244f
c706 12401 0 0.00333915f
c707 12399 0 0.245841f
c708 12396 0 0.00332748f
c709 12394 0 0.242555f
c710 12391 0 0.0028853f
c711 12389 0 0.242019f
c712 12386 0 0.00332532f
c713 12384 0 0.242466f
c714 12381 0 0.0033509f
c715 12379 0 0.242141f
c716 12376 0 0.00333215f
c717 12374 0 0.242872f
c718 12371 0 0.00335485f
c719 12369 0 0.242624f
c720 12366 0 0.0028853f
c721 12364 0 0.242041f
c722 12361 0 0.00332886f
c723 12359 0 0.29206f
c724 12354 0 0.241477f
c725 12353 0 0.00506498f
c726 12349 0 0.228479f
c727 12348 0 0.00589263f
c728 12344 0 0.229792f
c729 12343 0 0.00499984f
c730 12339 0 0.226919f
c731 12338 0 0.00432794f
c732 12334 0 0.230336f
c733 12333 0 0.00498564f
c734 12329 0 0.230246f
c735 12328 0 0.00502878f
c736 12324 0 0.226821f
c737 12323 0 0.00499676f
c738 12319 0 0.230223f
c739 12318 0 0.00497926f
c740 12314 0 0.226937f
c741 12313 0 0.00432794f
c742 12309 0 0.226401f
c743 12308 0 0.00497601f
c744 12304 0 0.226847f
c745 12303 0 0.00501439f
c746 12299 0 0.226523f
c747 12298 0 0.00498626f
c748 12294 0 0.227253f
c749 12293 0 0.00502031f
c750 12289 0 0.227006f
c751 12288 0 0.00432794f
c752 12284 0 0.226423f
c753 12283 0 0.00498132f
c754 12279 0 0.184379f
c755 12276 0 0.00189845f
c756 12274 0 0.191313f
c757 12271 0 0.0250432f
c758 12269 0 0.191313f
c759 12266 0 0.0252038f
c760 12264 0 0.191313f
c761 12261 0 0.0253643f
c762 12259 0 0.191313f
c763 12256 0 0.0252038f
c764 12254 0 0.191313f
c765 12251 0 0.0252038f
c766 12249 0 0.191313f
c767 12246 0 0.0252038f
c768 12244 0 0.191313f
c769 12241 0 0.0252038f
c770 12239 0 0.191313f
c771 12236 0 0.0253643f
c772 12234 0 0.191313f
c773 12231 0 0.0252038f
c774 12229 0 0.191313f
c775 12226 0 0.0252038f
c776 12224 0 0.191313f
c777 12221 0 0.0252038f
c778 12219 0 0.191313f
c779 12216 0 0.0252038f
c780 12214 0 0.191313f
c781 12211 0 0.0253643f
c782 12209 0 0.191313f
c783 12206 0 0.0252038f
c784 12204 0 0.140765f
c785 12201 0 0.00212306f
c786 12199 0 0.235416f
c787 12198 0 0.00339921f
c788 12194 0 0.230835f
c789 12193 0 0.00577381f
c790 12189 0 0.228499f
c791 12188 0 0.00495113f
c792 12184 0 0.228178f
c793 12183 0 0.00628091f
c794 12179 0 0.228575f
c795 12178 0 0.00495113f
c796 12174 0 0.228462f
c797 12173 0 0.00495113f
c798 12169 0 0.228596f
c799 12168 0 0.00495113f
c800 12164 0 0.228587f
c801 12163 0 0.00495113f
c802 12159 0 0.228178f
c803 12158 0 0.00628091f
c804 12154 0 0.228644f
c805 12153 0 0.00495113f
c806 12149 0 0.228613f
c807 12148 0 0.00495113f
c808 12144 0 0.228633f
c809 12143 0 0.00495113f
c810 12139 0 0.228548f
c811 12138 0 0.00495113f
c812 12134 0 0.228178f
c813 12133 0 0.00628091f
c814 12129 0 0.228644f
c815 12128 0 0.00495113f
c816 12124 0 0.199356f
c817 12121 0 4.54518e-19
c818 12119 0 0.222225f
c819 12118 0 0.0042336f
c820 12114 0 0.21545f
c821 12113 0 0.00669433f
c822 12109 0 0.212963f
c823 12108 0 0.00566531f
c824 12104 0 0.212431f
c825 12103 0 0.00704937f
c826 12099 0 0.212963f
c827 12098 0 0.00566531f
c828 12094 0 0.212963f
c829 12093 0 0.00566531f
c830 12089 0 0.212963f
c831 12088 0 0.00566531f
c832 12084 0 0.212963f
c833 12083 0 0.00566531f
c834 12079 0 0.212431f
c835 12078 0 0.00704937f
c836 12074 0 0.212963f
c837 12073 0 0.00566531f
c838 12069 0 0.212963f
c839 12068 0 0.00566531f
c840 12064 0 0.212963f
c841 12063 0 0.00566531f
c842 12059 0 0.212963f
c843 12058 0 0.00566531f
c844 12054 0 0.212431f
c845 12053 0 0.00704937f
c846 12049 0 0.212963f
c847 12048 0 0.00566531f
c848 12044 0 0.201964f
c849 12043 0 4.54518e-19
c850 12039 0 0.1767f
c851 12036 0 0.016309f
c852 12034 0 0.160226f
c853 12031 0 0.016762f
c854 12029 0 0.161385f
c855 12026 0 0.0138604f
c856 12024 0 0.157534f
c857 12021 0 0.0117306f
c858 12019 0 0.160718f
c859 12016 0 0.0138143f
c860 12014 0 0.16194f
c861 12011 0 0.0139545f
c862 12009 0 0.157148f
c863 12006 0 0.0138504f
c864 12004 0 0.160567f
c865 12001 0 0.0137935f
c866 11999 0 0.15755f
c867 11996 0 0.0117306f
c868 11994 0 0.156603f
c869 11991 0 0.013783f
c870 11989 0 0.157133f
c871 11986 0 0.0139077f
c872 11984 0 0.15677f
c873 11981 0 0.0138163f
c874 11979 0 0.157688f
c875 11976 0 0.0139269f
c876 11974 0 0.157623f
c877 11971 0 0.0117306f
c878 11969 0 0.156641f
c879 11966 0 0.0138002f
c880 11964 0 0.195297f
c881 11963 0 5.62698e-19
c882 11959 0 0.275566f
c883 11956 0 0.00339921f
c884 11954 0 0.268425f
c885 11951 0 0.00321423f
c886 11949 0 0.269887f
c887 11946 0 0.00261904f
c888 11944 0 0.267022f
c889 11941 0 0.00216313f
c890 11939 0 0.269653f
c891 11936 0 0.00260957f
c892 11934 0 0.270235f