* File: acc_min_max.pex.sp
* Created: Tue Jan 16 15:28:05 2024
* Program "Calibre xRC"
* Version "v2016.4_15.11"
* 
.include "acc_min_max.pex.sp.pex"
.subckt acc_min_max_v3  VDD VSS ACC14 ACC12 ACC1 ACC11 ACC10 ACC9 ACC8 ACC7 ACC6
+ ACC5 ACC4 ACC3 ACC2 ACC0 ACC13 ACC15 MIN15 MIN14 MIN13 MIN12 MIN11 MIN10 MIN9
+ MIN8 MIN7 MIN6 MIN5 MIN4 MIN3 MIN2 MIN1 MIN0 CIN2 MAX15 MAX14 MAX13 MAX12
+ MAX11 MAX10 MAX9 MAX8 MAX7 MAX6 MAX5 MAX4 MAX3 MAX2 MAX1 MAX0 CIN1 Q CLEAR A15
+ A14 A13 A12 A11 A10 A9 A8 A7 A6 A5 A4 A3 A2 A1 A0 CLK
* 
* CLK	CLK
* A0	A0
* A1	A1
* A2	A2
* A3	A3
* A4	A4
* A5	A5
* A6	A6
* A7	A7
* A8	A8
* A9	A9
* A10	A10
* A11	A11
* A12	A12
* A13	A13
* A14	A14
* A15	A15
* CLEAR	CLEAR
* Q	Q
* CIN1	CIN1
* MAX0	MAX0
* MAX1	MAX1
* MAX2	MAX2
* MAX3	MAX3
* MAX4	MAX4
* MAX5	MAX5
* MAX6	MAX6
* MAX7	MAX7
* MAX8	MAX8
* MAX9	MAX9
* MAX10	MAX10
* MAX11	MAX11
* MAX12	MAX12
* MAX13	MAX13
* MAX14	MAX14
* MAX15	MAX15
* CIN2	CIN2
* MIN0	MIN0
* MIN1	MIN1
* MIN2	MIN2
* MIN3	MIN3
* MIN4	MIN4
* MIN5	MIN5
* MIN6	MIN6
* MIN7	MIN7
* MIN8	MIN8
* MIN9	MIN9
* MIN10	MIN10
* MIN11	MIN11
* MIN12	MIN12
* MIN13	MIN13
* MIN14	MIN14
* MIN15	MIN15
* ACC15	ACC15
* ACC13	ACC13
* ACC0	ACC0
* ACC2	ACC2
* ACC3	ACC3
* ACC4	ACC4
* ACC5	ACC5
* ACC6	ACC6
* ACC7	ACC7
* ACC8	ACC8
* ACC9	ACC9
* ACC10	ACC10
* ACC11	ACC11
* ACC1	ACC1
* ACC12	ACC12
* ACC14	ACC14
* VSS	VSS
* VDD	VDD
mXI10.XI0.XI0.MM2 N_XI10.XI0.NET0180_XI10.XI0.XI0.MM2_d
+ N_NET222_XI10.XI0.XI0.MM2_g N_VSS_XI10.XI0.XI0.MM2_s N_VSS_XI10.XI0.XI0.MM2_b
+ N_18 L=1.8e-07 W=5e-07 AD=3.75e-13 AS=3.75e-13 PD=2e-06 PS=2e-06
mXI10.XI0.XI1.MM2 N_XI10.XI0.NET35_XI10.XI0.XI1.MM2_d
+ N_XI10.XI0.NET0180_XI10.XI0.XI1.MM2_g N_VSS_XI10.XI0.XI1.MM2_s
+ N_VSS_XI10.XI0.XI0.MM2_b N_18 L=1.8e-07 W=5e-07 AD=3.75e-13 AS=3.75e-13
+ PD=2e-06 PS=2e-06
mXI25.MM2 N_NET206_XI25.MM2_d N_CLEAR_XI25.MM2_g N_VSS_XI25.MM2_s
+ N_VSS_XI10.XI0.XI0.MM2_b N_18 L=1.8e-07 W=5e-07 AD=2.45e-13 AS=2.45e-13
+ PD=1.48e-06 PS=1.48e-06
mXI24.MM2 N_NET202_XI24.MM2_d N_NET206_XI24.MM2_g N_VSS_XI24.MM2_s
+ N_VSS_XI10.XI0.XI0.MM2_b N_18 L=1.8e-07 W=5e-07 AD=2.45e-13 AS=2.45e-13
+ PD=1.48e-06 PS=1.48e-06
mXI23.XI11.MM2 N_NET696_XI23.XI11.MM2_d N_A15_XI23.XI11.MM2_g
+ N_VSS_XI23.XI11.MM2_s N_VSS_XI10.XI0.XI0.MM2_b N_18 L=1.8e-07 W=5e-07
+ AD=2.45e-13 AS=2.45e-13 PD=1.48e-06 PS=1.48e-06
mXI22.XI11.MM2 N_NET662_XI22.XI11.MM2_d N_NET696_XI22.XI11.MM2_g
+ N_VSS_XI22.XI11.MM2_s N_VSS_XI10.XI0.XI0.MM2_b N_18 L=1.8e-07 W=5e-07
+ AD=2.45e-13 AS=2.45e-13 PD=1.48e-06 PS=1.48e-06
mXI23.XI12.MM2 N_NET697_XI23.XI12.MM2_d N_A14_XI23.XI12.MM2_g
+ N_VSS_XI23.XI12.MM2_s N_VSS_XI10.XI0.XI0.MM2_b N_18 L=1.8e-07 W=5e-07
+ AD=2.45e-13 AS=2.45e-13 PD=1.48e-06 PS=1.48e-06
mXI22.XI12.MM2 N_NET663_XI22.XI12.MM2_d N_NET697_XI22.XI12.MM2_g
+ N_VSS_XI22.XI12.MM2_s N_VSS_XI10.XI0.XI0.MM2_b N_18 L=1.8e-07 W=5e-07
+ AD=2.45e-13 AS=2.45e-13 PD=1.48e-06 PS=1.48e-06
mXI23.XI10.MM2 N_NET698_XI23.XI10.MM2_d N_A13_XI23.XI10.MM2_g
+ N_VSS_XI23.XI10.MM2_s N_VSS_XI10.XI0.XI0.MM2_b N_18 L=1.8e-07 W=5e-07
+ AD=2.45e-13 AS=2.45e-13 PD=1.48e-06 PS=1.48e-06
mXI22.XI10.MM2 N_NET664_XI22.XI10.MM2_d N_NET698_XI22.XI10.MM2_g
+ N_VSS_XI22.XI10.MM2_s N_VSS_XI10.XI0.XI0.MM2_b N_18 L=1.8e-07 W=5e-07
+ AD=2.45e-13 AS=2.45e-13 PD=1.48e-06 PS=1.48e-06
mXI23.XI9.MM2 N_NET699_XI23.XI9.MM2_d N_A12_XI23.XI9.MM2_g N_VSS_XI23.XI9.MM2_s
+ N_VSS_XI10.XI0.XI0.MM2_b N_18 L=1.8e-07 W=5e-07 AD=2.45e-13 AS=2.45e-13
+ PD=1.48e-06 PS=1.48e-06
mXI22.XI9.MM2 N_NET665_XI22.XI9.MM2_d N_NET699_XI22.XI9.MM2_g
+ N_VSS_XI22.XI9.MM2_s N_VSS_XI10.XI0.XI0.MM2_b N_18 L=1.8e-07 W=5e-07
+ AD=2.45e-13 AS=2.45e-13 PD=1.48e-06 PS=1.48e-06
mXI23.XI14.MM2 N_NET700_XI23.XI14.MM2_d N_A11_XI23.XI14.MM2_g
+ N_VSS_XI23.XI14.MM2_s N_VSS_XI10.XI0.XI0.MM2_b N_18 L=1.8e-07 W=5e-07
+ AD=2.45e-13 AS=2.45e-13 PD=1.48e-06 PS=1.48e-06
mXI22.XI14.MM2 N_NET666_XI22.XI14.MM2_d N_NET700_XI22.XI14.MM2_g
+ N_VSS_XI22.XI14.MM2_s N_VSS_XI10.XI0.XI0.MM2_b N_18 L=1.8e-07 W=5e-07
+ AD=2.45e-13 AS=2.45e-13 PD=1.48e-06 PS=1.48e-06
mXI23.XI13.MM2 N_NET701_XI23.XI13.MM2_d N_A10_XI23.XI13.MM2_g
+ N_VSS_XI23.XI13.MM2_s N_VSS_XI10.XI0.XI0.MM2_b N_18 L=1.8e-07 W=5e-07
+ AD=2.45e-13 AS=2.45e-13 PD=1.48e-06 PS=1.48e-06
mXI22.XI13.MM2 N_NET667_XI22.XI13.MM2_d N_NET701_XI22.XI13.MM2_g
+ N_VSS_XI22.XI13.MM2_s N_VSS_XI10.XI0.XI0.MM2_b N_18 L=1.8e-07 W=5e-07
+ AD=2.45e-13 AS=2.45e-13 PD=1.48e-06 PS=1.48e-06
mXI23.XI15.MM2 N_NET702_XI23.XI15.MM2_d N_A9_XI23.XI15.MM2_g
+ N_VSS_XI23.XI15.MM2_s N_VSS_XI10.XI0.XI0.MM2_b N_18 L=1.8e-07 W=5e-07
+ AD=2.45e-13 AS=2.45e-13 PD=1.48e-06 PS=1.48e-06
mXI22.XI15.MM2 N_NET668_XI22.XI15.MM2_d N_NET702_XI22.XI15.MM2_g
+ N_VSS_XI22.XI15.MM2_s N_VSS_XI10.XI0.XI0.MM2_b N_18 L=1.8e-07 W=5e-07
+ AD=2.45e-13 AS=2.45e-13 PD=1.48e-06 PS=1.48e-06
mXI23.XI6.MM2 N_NET703_XI23.XI6.MM2_d N_A8_XI23.XI6.MM2_g N_VSS_XI23.XI6.MM2_s
+ N_VSS_XI10.XI0.XI0.MM2_b N_18 L=1.8e-07 W=5e-07 AD=2.45e-13 AS=2.45e-13
+ PD=1.48e-06 PS=1.48e-06
mXI22.XI6.MM2 N_NET669_XI22.XI6.MM2_d N_NET703_XI22.XI6.MM2_g
+ N_VSS_XI22.XI6.MM2_s N_VSS_XI10.XI0.XI0.MM2_b N_18 L=1.8e-07 W=5e-07
+ AD=2.45e-13 AS=2.45e-13 PD=1.48e-06 PS=1.48e-06
mXI23.XI5.MM2 N_NET704_XI23.XI5.MM2_d N_A7_XI23.XI5.MM2_g N_VSS_XI23.XI5.MM2_s
+ N_VSS_XI10.XI0.XI0.MM2_b N_18 L=1.8e-07 W=5e-07 AD=2.45e-13 AS=2.45e-13
+ PD=1.48e-06 PS=1.48e-06
mXI22.XI5.MM2 N_NET670_XI22.XI5.MM2_d N_NET704_XI22.XI5.MM2_g
+ N_VSS_XI22.XI5.MM2_s N_VSS_XI10.XI0.XI0.MM2_b N_18 L=1.8e-07 W=5e-07
+ AD=2.45e-13 AS=2.45e-13 PD=1.48e-06 PS=1.48e-06
mXI23.XI7.MM2 N_NET705_XI23.XI7.MM2_d N_A6_XI23.XI7.MM2_g N_VSS_XI23.XI7.MM2_s
+ N_VSS_XI10.XI0.XI0.MM2_b N_18 L=1.8e-07 W=5e-07 AD=2.45e-13 AS=2.45e-13
+ PD=1.48e-06 PS=1.48e-06
mXI22.XI7.MM2 N_NET671_XI22.XI7.MM2_d N_NET705_XI22.XI7.MM2_g
+ N_VSS_XI22.XI7.MM2_s N_VSS_XI10.XI0.XI0.MM2_b N_18 L=1.8e-07 W=5e-07
+ AD=2.45e-13 AS=2.45e-13 PD=1.48e-06 PS=1.48e-06
mXI23.XI8.MM2 N_NET706_XI23.XI8.MM2_d N_A5_XI23.XI8.MM2_g N_VSS_XI23.XI8.MM2_s
+ N_VSS_XI10.XI0.XI0.MM2_b N_18 L=1.8e-07 W=5e-07 AD=2.45e-13 AS=2.45e-13
+ PD=1.48e-06 PS=1.48e-06
mXI22.XI8.MM2 N_NET672_XI22.XI8.MM2_d N_NET706_XI22.XI8.MM2_g
+ N_VSS_XI22.XI8.MM2_s N_VSS_XI10.XI0.XI0.MM2_b N_18 L=1.8e-07 W=5e-07
+ AD=2.45e-13 AS=2.45e-13 PD=1.48e-06 PS=1.48e-06
mXI23.XI3.MM2 N_NET707_XI23.XI3.MM2_d N_A4_XI23.XI3.MM2_g N_VSS_XI23.XI3.MM2_s
+ N_VSS_XI10.XI0.XI0.MM2_b N_18 L=1.8e-07 W=5e-07 AD=2.45e-13 AS=2.45e-13
+ PD=1.48e-06 PS=1.48e-06
mXI22.XI3.MM2 N_NET673_XI22.XI3.MM2_d N_NET707_XI22.XI3.MM2_g
+ N_VSS_XI22.XI3.MM2_s N_VSS_XI10.XI0.XI0.MM2_b N_18 L=1.8e-07 W=5e-07
+ AD=2.45e-13 AS=2.45e-13 PD=1.48e-06 PS=1.48e-06
mXI23.XI4.MM2 N_NET708_XI23.XI4.MM2_d N_A3_XI23.XI4.MM2_g N_VSS_XI23.XI4.MM2_s
+ N_VSS_XI10.XI0.XI0.MM2_b N_18 L=1.8e-07 W=5e-07 AD=2.45e-13 AS=2.45e-13
+ PD=1.48e-06 PS=1.48e-06
mXI22.XI4.MM2 N_NET674_XI22.XI4.MM2_d N_NET708_XI22.XI4.MM2_g
+ N_VSS_XI22.XI4.MM2_s N_VSS_XI10.XI0.XI0.MM2_b N_18 L=1.8e-07 W=5e-07
+ AD=2.45e-13 AS=2.45e-13 PD=1.48e-06 PS=1.48e-06
mXI23.XI2.MM2 N_NET709_XI23.XI2.MM2_d N_A2_XI23.XI2.MM2_g N_VSS_XI23.XI2.MM2_s
+ N_VSS_XI10.XI0.XI0.MM2_b N_18 L=1.8e-07 W=5e-07 AD=2.45e-13 AS=2.45e-13
+ PD=1.48e-06 PS=1.48e-06
mXI22.XI2.MM2 N_NET675_XI22.XI2.MM2_d N_NET709_XI22.XI2.MM2_g
+ N_VSS_XI22.XI2.MM2_s N_VSS_XI10.XI0.XI0.MM2_b N_18 L=1.8e-07 W=5e-07
+ AD=2.45e-13 AS=2.45e-13 PD=1.48e-06 PS=1.48e-06
mXI23.XI1.MM2 N_NET710_XI23.XI1.MM2_d N_A1_XI23.XI1.MM2_g N_VSS_XI23.XI1.MM2_s
+ N_VSS_XI10.XI0.XI0.MM2_b N_18 L=1.8e-07 W=5e-07 AD=2.45e-13 AS=2.45e-13
+ PD=1.48e-06 PS=1.48e-06
mXI22.XI1.MM2 N_NET676_XI22.XI1.MM2_d N_NET710_XI22.XI1.MM2_g
+ N_VSS_XI22.XI1.MM2_s N_VSS_XI10.XI0.XI0.MM2_b N_18 L=1.8e-07 W=5e-07
+ AD=2.45e-13 AS=2.45e-13 PD=1.48e-06 PS=1.48e-06
mXI23.XI0.MM2 N_NET711_XI23.XI0.MM2_d N_A0_XI23.XI0.MM2_g N_VSS_XI23.XI0.MM2_s
+ N_VSS_XI10.XI0.XI0.MM2_b N_18 L=1.8e-07 W=5e-07 AD=2.45e-13 AS=2.45e-13
+ PD=1.48e-06 PS=1.48e-06
mXI22.XI0.MM2 N_NET677_XI22.XI0.MM2_d N_NET711_XI22.XI0.MM2_g
+ N_VSS_XI22.XI0.MM2_s N_VSS_XI10.XI0.XI0.MM2_b N_18 L=1.8e-07 W=5e-07
+ AD=2.45e-13 AS=2.45e-13 PD=1.48e-06 PS=1.48e-06
mXI10.XI0.MM26 N_XI10.XI0.CLKB_XI10.XI0.MM26_d N_XI10.XI0.NET35_XI10.XI0.MM26_g
+ N_VSS_XI10.XI0.MM26_s N_VSS_XI10.XI0.XI0.MM2_b N_18 L=1.8e-07 W=5e-07
+ AD=3.75e-13 AS=3.75e-13 PD=2e-06 PS=2e-06
mXI17.XI0.MM2 N_XI17.NET0180_XI17.XI0.MM2_d N_NET222_XI17.XI0.MM2_g
+ N_VSS_XI17.XI0.MM2_s N_VSS_XI10.XI0.XI0.MM2_b N_18 L=1.8e-07 W=5e-07
+ AD=3.75e-13 AS=3.75e-13 PD=2e-06 PS=2e-06
mXI17.XI1.MM2 N_XI17.NET35_XI17.XI1.MM2_d N_XI17.NET0180_XI17.XI1.MM2_g
+ N_VSS_XI17.XI1.MM2_s N_VSS_XI10.XI0.XI0.MM2_b N_18 L=1.8e-07 W=5e-07
+ AD=3.75e-13 AS=3.75e-13 PD=2e-06 PS=2e-06
mXI17.MM26 N_XI17.CLKB_XI17.MM26_d N_XI17.NET35_XI17.MM26_g N_VSS_XI17.MM26_s
+ N_VSS_XI10.XI0.XI0.MM2_b N_18 L=1.8e-07 W=5e-07 AD=3.75e-13 AS=3.75e-13
+ PD=2e-06 PS=2e-06
mXI17.MM19 N_XI17.NET27_XI17.MM19_d N_NET202_XI17.MM19_g N_VSS_XI17.MM19_s
+ N_VSS_XI10.XI0.XI0.MM2_b N_18 L=1.8e-07 W=5e-07 AD=3.75e-13 AS=3.75e-13
+ PD=2e-06 PS=2e-06
mXI17.MM18 N_XI17.NET31_XI17.MM18_d N_XI17.NET27_XI17.MM18_g N_VSS_XI17.MM18_s
+ N_VSS_XI10.XI0.XI0.MM2_b N_18 L=1.8e-07 W=5e-07 AD=3.75e-13 AS=3.75e-13
+ PD=2e-06 PS=2e-06
mXI17.MM28 N_XI17.NET31_XI17.MM28_d N_XI17.CLKB_XI17.MM28_g
+ N_XI17.NET58_XI17.MM28_s N_VSS_XI10.XI0.XI0.MM2_b N_18 L=1.8e-07 W=5e-07
+ AD=3.75e-13 AS=3.75e-13 PD=2e-06 PS=2e-06
mXI17.MM6 N_XI17.NET15_XI17.MM6_d N_XI17.NET58_XI17.MM6_g N_VSS_XI17.MM6_s
+ N_VSS_XI10.XI0.XI0.MM2_b N_18 L=1.8e-07 W=5e-07 AD=3.75e-13 AS=3.75e-13
+ PD=2e-06 PS=2e-06
mXI17.MM0 N_XI17.NET54_XI17.MM0_d N_XI17.NET15_XI17.MM0_g N_VSS_XI17.MM0_s
+ N_VSS_XI10.XI0.XI0.MM2_b N_18 L=1.8e-07 W=5e-07 AD=3.75e-13 AS=3.75e-13
+ PD=2e-06 PS=2e-06
mXI17.MM36 N_XI17.NET58_XI17.MM36_d N_XI17.NET35_XI17.MM36_g
+ N_XI17.NET54_XI17.MM36_s N_VSS_XI10.XI0.XI0.MM2_b N_18 L=1.8e-07 W=5e-07
+ AD=3.75e-13 AS=3.75e-13 PD=2e-06 PS=2e-06
mXI17.MM38 N_XI17.NET15_XI17.MM38_d N_XI17.NET35_XI17.MM38_g
+ N_XI17.NET14_XI17.MM38_s N_VSS_XI10.XI0.XI0.MM2_b N_18 L=1.8e-07 W=5e-07
+ AD=3.75e-13 AS=3.75e-13 PD=2e-06 PS=2e-06
mXI17.MM15 N_Q_XI17.MM15_d N_XI17.NET14_XI17.MM15_g N_VSS_XI17.MM15_s
+ N_VSS_XI10.XI0.XI0.MM2_b N_18 L=1.8e-07 W=5e-07 AD=3.75e-13 AS=3.75e-13
+ PD=2e-06 PS=2e-06
mXI17.MM16 N_NET198_XI17.MM16_d N_Q_XI17.MM16_g N_VSS_XI17.MM16_s
+ N_VSS_XI10.XI0.XI0.MM2_b N_18 L=1.8e-07 W=5e-07 AD=3.75e-13 AS=3.75e-13
+ PD=2e-06 PS=2e-06
mXI17.MM40 N_XI17.NET14_XI17.MM40_d N_XI17.CLKB_XI17.MM40_g N_NET198_XI17.MM40_s
+ N_VSS_XI10.XI0.XI0.MM2_b N_18 L=1.8e-07 W=5e-07 AD=3.75e-13 AS=3.75e-13
+ PD=2e-06 PS=2e-06
mXI10.XI0.MM19 N_XI10.XI0.NET27_XI10.XI0.MM19_d N_NET677_XI10.XI0.MM19_g
+ N_VSS_XI10.XI0.MM19_s N_VSS_XI10.XI0.XI0.MM2_b N_18 L=1.8e-07 W=5e-07
+ AD=3.75e-13 AS=3.75e-13 PD=2e-06 PS=2e-06
mXI10.XI0.MM18 N_XI10.XI0.NET31_XI10.XI0.MM18_d N_XI10.XI0.NET27_XI10.XI0.MM18_g
+ N_VSS_XI10.XI0.MM18_s N_VSS_XI10.XI0.XI0.MM2_b N_18 L=1.8e-07 W=5e-07
+ AD=3.75e-13 AS=3.75e-13 PD=2e-06 PS=2e-06
mXI10.XI30.XI0.MM2 N_XI10.XI30.NET0180_XI10.XI30.XI0.MM2_d
+ N_NET222_XI10.XI30.XI0.MM2_g N_VSS_XI10.XI30.XI0.MM2_s
+ N_VSS_XI10.XI0.XI0.MM2_b N_18 L=1.8e-07 W=5e-07 AD=3.75e-13 AS=3.75e-13
+ PD=2e-06 PS=2e-06
mXI10.XI29.XI0.MM2 N_XI10.XI29.NET0180_XI10.XI29.XI0.MM2_d
+ N_NET222_XI10.XI29.XI0.MM2_g N_VSS_XI10.XI29.XI0.MM2_s
+ N_VSS_XI10.XI0.XI0.MM2_b N_18 L=1.8e-07 W=5e-07 AD=3.75e-13 AS=3.75e-13
+ PD=2e-06 PS=2e-06
mXI10.XI31.XI0.MM2 N_XI10.XI31.NET0180_XI10.XI31.XI0.MM2_d
+ N_NET222_XI10.XI31.XI0.MM2_g N_VSS_XI10.XI31.XI0.MM2_s
+ N_VSS_XI10.XI0.XI0.MM2_b N_18 L=1.8e-07 W=5e-07 AD=3.75e-13 AS=3.75e-13
+ PD=2e-06 PS=2e-06
mXI10.XI28.XI0.MM2 N_XI10.XI28.NET0180_XI10.XI28.XI0.MM2_d
+ N_NET222_XI10.XI28.XI0.MM2_g N_VSS_XI10.XI28.XI0.MM2_s
+ N_VSS_XI10.XI0.XI0.MM2_b N_18 L=1.8e-07 W=5e-07 AD=3.75e-13 AS=3.75e-13
+ PD=2e-06 PS=2e-06
mXI10.XI25.XI0.MM2 N_XI10.XI25.NET0180_XI10.XI25.XI0.MM2_d
+ N_NET222_XI10.XI25.XI0.MM2_g N_VSS_XI10.XI25.XI0.MM2_s
+ N_VSS_XI10.XI0.XI0.MM2_b N_18 L=1.8e-07 W=5e-07 AD=3.75e-13 AS=3.75e-13
+ PD=2e-06 PS=2e-06
mXI10.XI26.XI0.MM2 N_XI10.XI26.NET0180_XI10.XI26.XI0.MM2_d
+ N_NET222_XI10.XI26.XI0.MM2_g N_VSS_XI10.XI26.XI0.MM2_s
+ N_VSS_XI10.XI0.XI0.MM2_b N_18 L=1.8e-07 W=5e-07 AD=3.75e-13 AS=3.75e-13
+ PD=2e-06 PS=2e-06
mXI10.XI24.XI0.MM2 N_XI10.XI24.NET0180_XI10.XI24.XI0.MM2_d
+ N_NET222_XI10.XI24.XI0.MM2_g N_VSS_XI10.XI24.XI0.MM2_s
+ N_VSS_XI10.XI0.XI0.MM2_b N_18 L=1.8e-07 W=5e-07 AD=3.75e-13 AS=3.75e-13
+ PD=2e-06 PS=2e-06
mXI10.XI27.XI0.MM2 N_XI10.XI27.NET0180_XI10.XI27.XI0.MM2_d
+ N_NET222_XI10.XI27.XI0.MM2_g N_VSS_XI10.XI27.XI0.MM2_s
+ N_VSS_XI10.XI0.XI0.MM2_b N_18 L=1.8e-07 W=5e-07 AD=3.75e-13 AS=3.75e-13
+ PD=2e-06 PS=2e-06
mXI10.XI22.XI0.MM2 N_XI10.XI22.NET0180_XI10.XI22.XI0.MM2_d
+ N_NET222_XI10.XI22.XI0.MM2_g N_VSS_XI10.XI22.XI0.MM2_s
+ N_VSS_XI10.XI0.XI0.MM2_b N_18 L=1.8e-07 W=5e-07 AD=3.75e-13 AS=3.75e-13
+ PD=2e-06 PS=2e-06
mXI10.XI21.XI0.MM2 N_XI10.XI21.NET0180_XI10.XI21.XI0.MM2_d
+ N_NET222_XI10.XI21.XI0.MM2_g N_VSS_XI10.XI21.XI0.MM2_s
+ N_VSS_XI10.XI0.XI0.MM2_b N_18 L=1.8e-07 W=5e-07 AD=3.75e-13 AS=3.75e-13
+ PD=2e-06 PS=2e-06
mXI10.XI23.XI0.MM2 N_XI10.XI23.NET0180_XI10.XI23.XI0.MM2_d
+ N_NET222_XI10.XI23.XI0.MM2_g N_VSS_XI10.XI23.XI0.MM2_s
+ N_VSS_XI10.XI0.XI0.MM2_b N_18 L=1.8e-07 W=5e-07 AD=3.75e-13 AS=3.75e-13
+ PD=2e-06 PS=2e-06
mXI10.XI19.XI0.MM2 N_XI10.XI19.NET0180_XI10.XI19.XI0.MM2_d
+ N_NET222_XI10.XI19.XI0.MM2_g N_VSS_XI10.XI19.XI0.MM2_s
+ N_VSS_XI10.XI0.XI0.MM2_b N_18 L=1.8e-07 W=5e-07 AD=3.75e-13 AS=3.75e-13
+ PD=2e-06 PS=2e-06
mXI10.XI20.XI0.MM2 N_XI10.XI20.NET0180_XI10.XI20.XI0.MM2_d
+ N_NET222_XI10.XI20.XI0.MM2_g N_VSS_XI10.XI20.XI0.MM2_s
+ N_VSS_XI10.XI0.XI0.MM2_b N_18 L=1.8e-07 W=5e-07 AD=3.75e-13 AS=3.75e-13
+ PD=2e-06 PS=2e-06
mXI10.XI18.XI0.MM2 N_XI10.XI18.NET0180_XI10.XI18.XI0.MM2_d
+ N_NET222_XI10.XI18.XI0.MM2_g N_VSS_XI10.XI18.XI0.MM2_s
+ N_VSS_XI10.XI0.XI0.MM2_b N_18 L=1.8e-07 W=5e-07 AD=3.75e-13 AS=3.75e-13
+ PD=2e-06 PS=2e-06
mXI10.XI17.XI0.MM2 N_XI10.XI17.NET0180_XI10.XI17.XI0.MM2_d
+ N_NET222_XI10.XI17.XI0.MM2_g N_VSS_XI10.XI17.XI0.MM2_s
+ N_VSS_XI10.XI0.XI0.MM2_b N_18 L=1.8e-07 W=5e-07 AD=3.75e-13 AS=3.75e-13
+ PD=2e-06 PS=2e-06
mXI10.XI0.MM28 N_XI10.XI0.NET31_XI10.XI0.MM28_d N_XI10.XI0.CLKB_XI10.XI0.MM28_g
+ N_XI10.XI0.NET58_XI10.XI0.MM28_s N_VSS_XI10.XI0.XI0.MM2_b N_18 L=1.8e-07
+ W=5e-07 AD=3.75e-13 AS=3.75e-13 PD=2e-06 PS=2e-06
mXI10.XI30.XI1.MM2 N_XI10.XI30.NET35_XI10.XI30.XI1.MM2_d
+ N_XI10.XI30.NET0180_XI10.XI30.XI1.MM2_g N_VSS_XI10.XI30.XI1.MM2_s
+ N_VSS_XI10.XI0.XI0.MM2_b N_18 L=1.8e-07 W=5e-07 AD=3.75e-13 AS=3.75e-13
+ PD=2e-06 PS=2e-06
mXI10.XI29.XI1.MM2 N_XI10.XI29.NET35_XI10.XI29.XI1.MM2_d
+ N_XI10.XI29.NET0180_XI10.XI29.XI1.MM2_g N_VSS_XI10.XI29.XI1.MM2_s
+ N_VSS_XI10.XI0.XI0.MM2_b N_18 L=1.8e-07 W=5e-07 AD=3.75e-13 AS=3.75e-13
+ PD=2e-06 PS=2e-06
mXI10.XI31.XI1.MM2 N_XI10.XI31.NET35_XI10.XI31.XI1.MM2_d
+ N_XI10.XI31.NET0180_XI10.XI31.XI1.MM2_g N_VSS_XI10.XI31.XI1.MM2_s
+ N_VSS_XI10.XI0.XI0.MM2_b N_18 L=1.8e-07 W=5e-07 AD=3.75e-13 AS=3.75e-13
+ PD=2e-06 PS=2e-06
mXI10.XI28.XI1.MM2 N_XI10.XI28.NET35_XI10.XI28.XI1.MM2_d
+ N_XI10.XI28.NET0180_XI10.XI28.XI1.MM2_g N_VSS_XI10.XI28.XI1.MM2_s
+ N_VSS_XI10.XI0.XI0.MM2_b N_18 L=1.8e-07 W=5e-07 AD=3.75e-13 AS=3.75e-13
+ PD=2e-06 PS=2e-06
mXI10.XI25.XI1.MM2 N_XI10.XI25.NET35_XI10.XI25.XI1.MM2_d
+ N_XI10.XI25.NET0180_XI10.XI25.XI1.MM2_g N_VSS_XI10.XI25.XI1.MM2_s
+ N_VSS_XI10.XI0.XI0.MM2_b N_18 L=1.8e-07 W=5e-07 AD=3.75e-13 AS=3.75e-13
+ PD=2e-06 PS=2e-06
mXI10.XI26.XI1.MM2 N_XI10.XI26.NET35_XI10.XI26.XI1.MM2_d
+ N_XI10.XI26.NET0180_XI10.XI26.XI1.MM2_g N_VSS_XI10.XI26.XI1.MM2_s
+ N_VSS_XI10.XI0.XI0.MM2_b N_18 L=1.8e-07 W=5e-07 AD=3.75e-13 AS=3.75e-13
+ PD=2e-06 PS=2e-06
mXI10.XI24.XI1.MM2 N_XI10.XI24.NET35_XI10.XI24.XI1.MM2_d
+ N_XI10.XI24.NET0180_XI10.XI24.XI1.MM2_g N_VSS_XI10.XI24.XI1.MM2_s
+ N_VSS_XI10.XI0.XI0.MM2_b N_18 L=1.8e-07 W=5e-07 AD=3.75e-13 AS=3.75e-13
+ PD=2e-06 PS=2e-06
mXI10.XI27.XI1.MM2 N_XI10.XI27.NET35_XI10.XI27.XI1.MM2_d
+ N_XI10.XI27.NET0180_XI10.XI27.XI1.MM2_g N_VSS_XI10.XI27.XI1.MM2_s
+ N_VSS_XI10.XI0.XI0.MM2_b N_18 L=1.8e-07 W=5e-07 AD=3.75e-13 AS=3.75e-13
+ PD=2e-06 PS=2e-06
mXI10.XI22.XI1.MM2 N_XI10.XI22.NET35_XI10.XI22.XI1.MM2_d
+ N_XI10.XI22.NET0180_XI10.XI22.XI1.MM2_g N_VSS_XI10.XI22.XI1.MM2_s
+ N_VSS_XI10.XI0.XI0.MM2_b N_18 L=1.8e-07 W=5e-07 AD=3.75e-13 AS=3.75e-13
+ PD=2e-06 PS=2e-06
mXI10.XI21.XI1.MM2 N_XI10.XI21.NET35_XI10.XI21.XI1.MM2_d
+ N_XI10.XI21.NET0180_XI10.XI21.XI1.MM2_g N_VSS_XI10.XI21.XI1.MM2_s
+ N_VSS_XI10.XI0.XI0.MM2_b N_18 L=1.8e-07 W=5e-07 AD=3.75e-13 AS=3.75e-13
+ PD=2e-06 PS=2e-06
mXI10.XI23.XI1.MM2 N_XI10.XI23.NET35_XI10.XI23.XI1.MM2_d
+ N_XI10.XI23.NET0180_XI10.XI23.XI1.MM2_g N_VSS_XI10.XI23.XI1.MM2_s
+ N_VSS_XI10.XI0.XI0.MM2_b N_18 L=1.8e-07 W=5e-07 AD=3.75e-13 AS=3.75e-13
+ PD=2e-06 PS=2e-06
mXI10.XI19.XI1.MM2 N_XI10.XI19.NET35_XI10.XI19.XI1.MM2_d
+ N_XI10.XI19.NET0180_XI10.XI19.XI1.MM2_g N_VSS_XI10.XI19.XI1.MM2_s
+ N_VSS_XI10.XI0.XI0.MM2_b N_18 L=1.8e-07 W=5e-07 AD=3.75e-13 AS=3.75e-13
+ PD=2e-06 PS=2e-06
mXI10.XI20.XI1.MM2 N_XI10.XI20.NET35_XI10.XI20.XI1.MM2_d
+ N_XI10.XI20.NET0180_XI10.XI20.XI1.MM2_g N_VSS_XI10.XI20.XI1.MM2_s
+ N_VSS_XI10.XI0.XI0.MM2_b N_18 L=1.8e-07 W=5e-07 AD=3.75e-13 AS=3.75e-13
+ PD=2e-06 PS=2e-06
mXI10.XI18.XI1.MM2 N_XI10.XI18.NET35_XI10.XI18.XI1.MM2_d
+ N_XI10.XI18.NET0180_XI10.XI18.XI1.MM2_g N_VSS_XI10.XI18.XI1.MM2_s
+ N_VSS_XI10.XI0.XI0.MM2_b N_18 L=1.8e-07 W=5e-07 AD=3.75e-13 AS=3.75e-13
+ PD=2e-06 PS=2e-06
mXI10.XI17.XI1.MM2 N_XI10.XI17.NET35_XI10.XI17.XI1.MM2_d
+ N_XI10.XI17.NET0180_XI10.XI17.XI1.MM2_g N_VSS_XI10.XI17.XI1.MM2_s
+ N_VSS_XI10.XI0.XI0.MM2_b N_18 L=1.8e-07 W=5e-07 AD=3.75e-13 AS=3.75e-13
+ PD=2e-06 PS=2e-06
mXI10.XI0.MM6 N_XI10.XI0.NET15_XI10.XI0.MM6_d N_XI10.XI0.NET58_XI10.XI0.MM6_g
+ N_VSS_XI10.XI0.MM6_s N_VSS_XI10.XI0.XI0.MM2_b N_18 L=1.8e-07 W=5e-07
+ AD=3.75e-13 AS=3.75e-13 PD=2e-06 PS=2e-06
mXI10.XI30.MM26 N_XI10.XI30.CLKB_XI10.XI30.MM26_d
+ N_XI10.XI30.NET35_XI10.XI30.MM26_g N_VSS_XI10.XI30.MM26_s
+ N_VSS_XI10.XI0.XI0.MM2_b N_18 L=1.8e-07 W=5e-07 AD=3.75e-13 AS=3.75e-13
+ PD=2e-06 PS=2e-06
mXI10.XI29.MM26 N_XI10.XI29.CLKB_XI10.XI29.MM26_d
+ N_XI10.XI29.NET35_XI10.XI29.MM26_g N_VSS_XI10.XI29.MM26_s
+ N_VSS_XI10.XI0.XI0.MM2_b N_18 L=1.8e-07 W=5e-07 AD=3.75e-13 AS=3.75e-13
+ PD=2e-06 PS=2e-06
mXI10.XI31.MM26 N_XI10.XI31.CLKB_XI10.XI31.MM26_d
+ N_XI10.XI31.NET35_XI10.XI31.MM26_g N_VSS_XI10.XI31.MM26_s
+ N_VSS_XI10.XI0.XI0.MM2_b N_18 L=1.8e-07 W=5e-07 AD=3.75e-13 AS=3.75e-13
+ PD=2e-06 PS=2e-06
mXI10.XI28.MM26 N_XI10.XI28.CLKB_XI10.XI28.MM26_d
+ N_XI10.XI28.NET35_XI10.XI28.MM26_g N_VSS_XI10.XI28.MM26_s
+ N_VSS_XI10.XI0.XI0.MM2_b N_18 L=1.8e-07 W=5e-07 AD=3.75e-13 AS=3.75e-13
+ PD=2e-06 PS=2e-06
mXI10.XI25.MM26 N_XI10.XI25.CLKB_XI10.XI25.MM26_d
+ N_XI10.XI25.NET35_XI10.XI25.MM26_g N_VSS_XI10.XI25.MM26_s
+ N_VSS_XI10.XI0.XI0.MM2_b N_18 L=1.8e-07 W=5e-07 AD=3.75e-13 AS=3.75e-13
+ PD=2e-06 PS=2e-06
mXI10.XI26.MM26 N_XI10.XI26.CLKB_XI10.XI26.MM26_d
+ N_XI10.XI26.NET35_XI10.XI26.MM26_g N_VSS_XI10.XI26.MM26_s
+ N_VSS_XI10.XI0.XI0.MM2_b N_18 L=1.8e-07 W=5e-07 AD=3.75e-13 AS=3.75e-13
+ PD=2e-06 PS=2e-06
mXI10.XI24.MM26 N_XI10.XI24.CLKB_XI10.XI24.MM26_d
+ N_XI10.XI24.NET35_XI10.XI24.MM26_g N_VSS_XI10.XI24.MM26_s
+ N_VSS_XI10.XI0.XI0.MM2_b N_18 L=1.8e-07 W=5e-07 AD=3.75e-13 AS=3.75e-13
+ PD=2e-06 PS=2e-06
mXI10.XI27.MM26 N_XI10.XI27.CLKB_XI10.XI27.MM26_d
+ N_XI10.XI27.NET35_XI10.XI27.MM26_g N_VSS_XI10.XI27.MM26_s
+ N_VSS_XI10.XI0.XI0.MM2_b N_18 L=1.8e-07 W=5e-07 AD=3.75e-13 AS=3.75e-13
+ PD=2e-06 PS=2e-06
mXI10.XI22.MM26 N_XI10.XI22.CLKB_XI10.XI22.MM26_d
+ N_XI10.XI22.NET35_XI10.XI22.MM26_g N_VSS_XI10.XI22.MM26_s
+ N_VSS_XI10.XI0.XI0.MM2_b N_18 L=1.8e-07 W=5e-07 AD=3.75e-13 AS=3.75e-13
+ PD=2e-06 PS=2e-06
mXI10.XI21.MM26 N_XI10.XI21.CLKB_XI10.XI21.MM26_d
+ N_XI10.XI21.NET35_XI10.XI21.MM26_g N_VSS_XI10.XI21.MM26_s
+ N_VSS_XI10.XI0.XI0.MM2_b N_18 L=1.8e-07 W=5e-07 AD=3.75e-13 AS=3.75e-13
+ PD=2e-06 PS=2e-06
mXI10.XI23.MM26 N_XI10.XI23.CLKB_XI10.XI23.MM26_d
+ N_XI10.XI23.NET35_XI10.XI23.MM26_g N_VSS_XI10.XI23.MM26_s
+ N_VSS_XI10.XI0.XI0.MM2_b N_18 L=1.8e-07 W=5e-07 AD=3.75e-13 AS=3.75e-13
+ PD=2e-06 PS=2e-06
mXI10.XI19.MM26 N_XI10.XI19.CLKB_XI10.XI19.MM26_d
+ N_XI10.XI19.NET35_XI10.XI19.MM26_g N_VSS_XI10.XI19.MM26_s
+ N_VSS_XI10.XI0.XI0.MM2_b N_18 L=1.8e-07 W=5e-07 AD=3.75e-13 AS=3.75e-13
+ PD=2e-06 PS=2e-06
mXI10.XI20.MM26 N_XI10.XI20.CLKB_XI10.XI20.MM26_d
+ N_XI10.XI20.NET35_XI10.XI20.MM26_g N_VSS_XI10.XI20.MM26_s
+ N_VSS_XI10.XI0.XI0.MM2_b N_18 L=1.8e-07 W=5e-07 AD=3.75e-13 AS=3.75e-13
+ PD=2e-06 PS=2e-06
mXI10.XI18.MM26 N_XI10.XI18.CLKB_XI10.XI18.MM26_d
+ N_XI10.XI18.NET35_XI10.XI18.MM26_g N_VSS_XI10.XI18.MM26_s
+ N_VSS_XI10.XI0.XI0.MM2_b N_18 L=1.8e-07 W=5e-07 AD=3.75e-13 AS=3.75e-13
+ PD=2e-06 PS=2e-06
mXI10.XI17.MM26 N_XI10.XI17.CLKB_XI10.XI17.MM26_d
+ N_XI10.XI17.NET35_XI10.XI17.MM26_g N_VSS_XI10.XI17.MM26_s
+ N_VSS_XI10.XI0.XI0.MM2_b N_18 L=1.8e-07 W=5e-07 AD=3.75e-13 AS=3.75e-13
+ PD=2e-06 PS=2e-06
mXI10.XI0.MM0 N_XI10.XI0.NET54_XI10.XI0.MM0_d N_XI10.XI0.NET15_XI10.XI0.MM0_g
+ N_VSS_XI10.XI0.MM0_s N_VSS_XI10.XI0.XI0.MM2_b N_18 L=1.8e-07 W=5e-07
+ AD=3.75e-13 AS=3.75e-13 PD=2e-06 PS=2e-06
mXI10.XI30.MM19 N_XI10.XI30.NET27_XI10.XI30.MM19_d N_NET662_XI10.XI30.MM19_g
+ N_VSS_XI10.XI30.MM19_s N_VSS_XI10.XI0.XI0.MM2_b N_18 L=1.8e-07 W=5e-07
+ AD=3.75e-13 AS=3.75e-13 PD=2e-06 PS=2e-06
mXI10.XI29.MM19 N_XI10.XI29.NET27_XI10.XI29.MM19_d N_NET663_XI10.XI29.MM19_g
+ N_VSS_XI10.XI29.MM19_s N_VSS_XI10.XI0.XI0.MM2_b N_18 L=1.8e-07 W=5e-07
+ AD=3.75e-13 AS=3.75e-13 PD=2e-06 PS=2e-06
mXI10.XI31.MM19 N_XI10.XI31.NET27_XI10.XI31.MM19_d N_NET664_XI10.XI31.MM19_g
+ N_VSS_XI10.XI31.MM19_s N_VSS_XI10.XI0.XI0.MM2_b N_18 L=1.8e-07 W=5e-07
+ AD=3.75e-13 AS=3.75e-13 PD=2e-06 PS=2e-06
mXI10.XI28.MM19 N_XI10.XI28.NET27_XI10.XI28.MM19_d N_NET665_XI10.XI28.MM19_g
+ N_VSS_XI10.XI28.MM19_s N_VSS_XI10.XI0.XI0.MM2_b N_18 L=1.8e-07 W=5e-07
+ AD=3.75e-13 AS=3.75e-13 PD=2e-06 PS=2e-06
mXI10.XI25.MM19 N_XI10.XI25.NET27_XI10.XI25.MM19_d N_NET666_XI10.XI25.MM19_g
+ N_VSS_XI10.XI25.MM19_s N_VSS_XI10.XI0.XI0.MM2_b N_18 L=1.8e-07 W=5e-07
+ AD=3.75e-13 AS=3.75e-13 PD=2e-06 PS=2e-06
mXI10.XI26.MM19 N_XI10.XI26.NET27_XI10.XI26.MM19_d N_NET667_XI10.XI26.MM19_g
+ N_VSS_XI10.XI26.MM19_s N_VSS_XI10.XI0.XI0.MM2_b N_18 L=1.8e-07 W=5e-07
+ AD=3.75e-13 AS=3.75e-13 PD=2e-06 PS=2e-06
mXI10.XI24.MM19 N_XI10.XI24.NET27_XI10.XI24.MM19_d N_NET668_XI10.XI24.MM19_g
+ N_VSS_XI10.XI24.MM19_s N_VSS_XI10.XI0.XI0.MM2_b N_18 L=1.8e-07 W=5e-07
+ AD=3.75e-13 AS=3.75e-13 PD=2e-06 PS=2e-06
mXI10.XI27.MM19 N_XI10.XI27.NET27_XI10.XI27.MM19_d N_NET669_XI10.XI27.MM19_g
+ N_VSS_XI10.XI27.MM19_s N_VSS_XI10.XI0.XI0.MM2_b N_18 L=1.8e-07 W=5e-07
+ AD=3.75e-13 AS=3.75e-13 PD=2e-06 PS=2e-06
mXI10.XI22.MM19 N_XI10.XI22.NET27_XI10.XI22.MM19_d N_NET670_XI10.XI22.MM19_g
+ N_VSS_XI10.XI22.MM19_s N_VSS_XI10.XI0.XI0.MM2_b N_18 L=1.8e-07 W=5e-07
+ AD=3.75e-13 AS=3.75e-13 PD=2e-06 PS=2e-06
mXI10.XI21.MM19 N_XI10.XI21.NET27_XI10.XI21.MM19_d N_NET671_XI10.XI21.MM19_g
+ N_VSS_XI10.XI21.MM19_s N_VSS_XI10.XI0.XI0.MM2_b N_18 L=1.8e-07 W=5e-07
+ AD=3.75e-13 AS=3.75e-13 PD=2e-06 PS=2e-06
mXI10.XI23.MM19 N_XI10.XI23.NET27_XI10.XI23.MM19_d N_NET672_XI10.XI23.MM19_g
+ N_VSS_XI10.XI23.MM19_s N_VSS_XI10.XI0.XI0.MM2_b N_18 L=1.8e-07 W=5e-07
+ AD=3.75e-13 AS=3.75e-13 PD=2e-06 PS=2e-06
mXI10.XI19.MM19 N_XI10.XI19.NET27_XI10.XI19.MM19_d N_NET673_XI10.XI19.MM19_g
+ N_VSS_XI10.XI19.MM19_s N_VSS_XI10.XI0.XI0.MM2_b N_18 L=1.8e-07 W=5e-07
+ AD=3.75e-13 AS=3.75e-13 PD=2e-06 PS=2e-06
mXI10.XI20.MM19 N_XI10.XI20.NET27_XI10.XI20.MM19_d N_NET674_XI10.XI20.MM19_g
+ N_VSS_XI10.XI20.MM19_s N_VSS_XI10.XI0.XI0.MM2_b N_18 L=1.8e-07 W=5e-07
+ AD=3.75e-13 AS=3.75e-13 PD=2e-06 PS=2e-06
mXI10.XI18.MM19 N_XI10.XI18.NET27_XI10.XI18.MM19_d N_NET675_XI10.XI18.MM19_g
+ N_VSS_XI10.XI18.MM19_s N_VSS_XI10.XI0.XI0.MM2_b N_18 L=1.8e-07 W=5e-07
+ AD=3.75e-13 AS=3.75e-13 PD=2e-06 PS=2e-06
mXI10.XI17.MM19 N_XI10.XI17.NET27_XI10.XI17.MM19_d N_NET676_XI10.XI17.MM19_g
+ N_VSS_XI10.XI17.MM19_s N_VSS_XI10.XI0.XI0.MM2_b N_18 L=1.8e-07 W=5e-07
+ AD=3.75e-13 AS=3.75e-13 PD=2e-06 PS=2e-06
mXI10.XI0.MM36 N_XI10.XI0.NET58_XI10.XI0.MM36_d N_XI10.XI0.NET35_XI10.XI0.MM36_g
+ N_XI10.XI0.NET54_XI10.XI0.MM36_s N_VSS_XI10.XI0.XI0.MM2_b N_18 L=1.8e-07
+ W=5e-07 AD=3.75e-13 AS=3.75e-13 PD=2e-06 PS=2e-06
mXI10.XI30.MM18 N_XI10.XI30.NET31_XI10.XI30.MM18_d
+ N_XI10.XI30.NET27_XI10.XI30.MM18_g N_VSS_XI10.XI30.MM18_s
+ N_VSS_XI10.XI0.XI0.MM2_b N_18 L=1.8e-07 W=5e-07 AD=3.75e-13 AS=3.75e-13
+ PD=2e-06 PS=2e-06
mXI10.XI29.MM18 N_XI10.XI29.NET31_XI10.XI29.MM18_d
+ N_XI10.XI29.NET27_XI10.XI29.MM18_g N_VSS_XI10.XI29.MM18_s
+ N_VSS_XI10.XI0.XI0.MM2_b N_18 L=1.8e-07 W=5e-07 AD=3.75e-13 AS=3.75e-13
+ PD=2e-06 PS=2e-06
mXI10.XI31.MM18 N_XI10.XI31.NET31_XI10.XI31.MM18_d
+ N_XI10.XI31.NET27_XI10.XI31.MM18_g N_VSS_XI10.XI31.MM18_s
+ N_VSS_XI10.XI0.XI0.MM2_b N_18 L=1.8e-07 W=5e-07 AD=3.75e-13 AS=3.75e-13
+ PD=2e-06 PS=2e-06
mXI10.XI28.MM18 N_XI10.XI28.NET31_XI10.XI28.MM18_d
+ N_XI10.XI28.NET27_XI10.XI28.MM18_g N_VSS_XI10.XI28.MM18_s
+ N_VSS_XI10.XI0.XI0.MM2_b N_18 L=1.8e-07 W=5e-07 AD=3.75e-13 AS=3.75e-13
+ PD=2e-06 PS=2e-06
mXI10.XI25.MM18 N_XI10.XI25.NET31_XI10.XI25.MM18_d
+ N_XI10.XI25.NET27_XI10.XI25.MM18_g N_VSS_XI10.XI25.MM18_s
+ N_VSS_XI10.XI0.XI0.MM2_b N_18 L=1.8e-07 W=5e-07 AD=3.75e-13 AS=3.75e-13
+ PD=2e-06 PS=2e-06
mXI10.XI26.MM18 N_XI10.XI26.NET31_XI10.XI26.MM18_d
+ N_XI10.XI26.NET27_XI10.XI26.MM18_g N_VSS_XI10.XI26.MM18_s
+ N_VSS_XI10.XI0.XI0.MM2_b N_18 L=1.8e-07 W=5e-07 AD=3.75e-13 AS=3.75e-13
+ PD=2e-06 PS=2e-06
mXI10.XI24.MM18 N_XI10.XI24.NET31_XI10.XI24.MM18_d
+ N_XI10.XI24.NET27_XI10.XI24.MM18_g N_VSS_XI10.XI24.MM18_s
+ N_VSS_XI10.XI0.XI0.MM2_b N_18 L=1.8e-07 W=5e-07 AD=3.75e-13 AS=3.75e-13
+ PD=2e-06 PS=2e-06
mXI10.XI27.MM18 N_XI10.XI27.NET31_XI10.XI27.MM18_d
+ N_XI10.XI27.NET27_XI10.XI27.MM18_g N_VSS_XI10.XI27.MM18_s
+ N_VSS_XI10.XI0.XI0.MM2_b N_18 L=1.8e-07 W=5e-07 AD=3.75e-13 AS=3.75e-13
+ PD=2e-06 PS=2e-06
mXI10.XI22.MM18 N_XI10.XI22.NET31_XI10.XI22.MM18_d
+ N_XI10.XI22.NET27_XI10.XI22.MM18_g N_VSS_XI10.XI22.MM18_s
+ N_VSS_XI10.XI0.XI0.MM2_b N_18 L=1.8e-07 W=5e-07 AD=3.75e-13 AS=3.75e-13
+ PD=2e-06 PS=2e-06
mXI10.XI21.MM18 N_XI10.XI21.NET31_XI10.XI21.MM18_d
+ N_XI10.XI21.NET27_XI10.XI21.MM18_g N_VSS_XI10.XI21.MM18_s
+ N_VSS_XI10.XI0.XI0.MM2_b N_18 L=1.8e-07 W=5e-07 AD=3.75e-13 AS=3.75e-13
+ PD=2e-06 PS=2e-06
mXI10.XI23.MM18 N_XI10.XI23.NET31_XI10.XI23.MM18_d
+ N_XI10.XI23.NET27_XI10.XI23.MM18_g N_VSS_XI10.XI23.MM18_s
+ N_VSS_XI10.XI0.XI0.MM2_b N_18 L=1.8e-07 W=5e-07 AD=3.75e-13 AS=3.75e-13
+ PD=2e-06 PS=2e-06
mXI10.XI19.MM18 N_XI10.XI19.NET31_XI10.XI19.MM18_d
+ N_XI10.XI19.NET27_XI10.XI19.MM18_g N_VSS_XI10.XI19.MM18_s
+ N_VSS_XI10.XI0.XI0.MM2_b N_18 L=1.8e-07 W=5e-07 AD=3.75e-13 AS=3.75e-13
+ PD=2e-06 PS=2e-06
mXI10.XI20.MM18 N_XI10.XI20.NET31_XI10.XI20.MM18_d
+ N_XI10.XI20.NET27_XI10.XI20.MM18_g N_VSS_XI10.XI20.MM18_s
+ N_VSS_XI10.XI0.XI0.MM2_b N_18 L=1.8e-07 W=5e-07 AD=3.75e-13 AS=3.75e-13
+ PD=2e-06 PS=2e-06
mXI10.XI18.MM18 N_XI10.XI18.NET31_XI10.XI18.MM18_d
+ N_XI10.XI18.NET27_XI10.XI18.MM18_g N_VSS_XI10.XI18.MM18_s
+ N_VSS_XI10.XI0.XI0.MM2_b N_18 L=1.8e-07 W=5e-07 AD=3.75e-13 AS=3.75e-13
+ PD=2e-06 PS=2e-06
mXI10.XI17.MM18 N_XI10.XI17.NET31_XI10.XI17.MM18_d
+ N_XI10.XI17.NET27_XI10.XI17.MM18_g N_VSS_XI10.XI17.MM18_s
+ N_VSS_XI10.XI0.XI0.MM2_b N_18 L=1.8e-07 W=5e-07 AD=3.75e-13 AS=3.75e-13
+ PD=2e-06 PS=2e-06
mXI10.XI0.MM38 N_XI10.XI0.NET15_XI10.XI0.MM38_d N_XI10.XI0.NET35_XI10.XI0.MM38_g
+ N_XI10.XI0.NET14_XI10.XI0.MM38_s N_VSS_XI10.XI0.XI0.MM2_b N_18 L=1.8e-07
+ W=5e-07 AD=3.75e-13 AS=3.75e-13 PD=2e-06 PS=2e-06
mXI10.XI30.MM28 N_XI10.XI30.NET31_XI10.XI30.MM28_d
+ N_XI10.XI30.CLKB_XI10.XI30.MM28_g N_XI10.XI30.NET58_XI10.XI30.MM28_s
+ N_VSS_XI10.XI0.XI0.MM2_b N_18 L=1.8e-07 W=5e-07 AD=3.75e-13 AS=3.75e-13
+ PD=2e-06 PS=2e-06
mXI10.XI29.MM28 N_XI10.XI29.NET31_XI10.XI29.MM28_d
+ N_XI10.XI29.CLKB_XI10.XI29.MM28_g N_XI10.XI29.NET58_XI10.XI29.MM28_s
+ N_VSS_XI10.XI0.XI0.MM2_b N_18 L=1.8e-07 W=5e-07 AD=3.75e-13 AS=3.75e-13
+ PD=2e-06 PS=2e-06
mXI10.XI31.MM28 N_XI10.XI31.NET31_XI10.XI31.MM28_d
+ N_XI10.XI31.CLKB_XI10.XI31.MM28_g N_XI10.XI31.NET58_XI10.XI31.MM28_s
+ N_VSS_XI10.XI0.XI0.MM2_b N_18 L=1.8e-07 W=5e-07 AD=3.75e-13 AS=3.75e-13
+ PD=2e-06 PS=2e-06
mXI10.XI28.MM28 N_XI10.XI28.NET31_XI10.XI28.MM28_d
+ N_XI10.XI28.CLKB_XI10.XI28.MM28_g N_XI10.XI28.NET58_XI10.XI28.MM28_s
+ N_VSS_XI10.XI0.XI0.MM2_b N_18 L=1.8e-07 W=5e-07 AD=3.75e-13 AS=3.75e-13
+ PD=2e-06 PS=2e-06
mXI10.XI25.MM28 N_XI10.XI25.NET31_XI10.XI25.MM28_d
+ N_XI10.XI25.CLKB_XI10.XI25.MM28_g N_XI10.XI25.NET58_XI10.XI25.MM28_s
+ N_VSS_XI10.XI0.XI0.MM2_b N_18 L=1.8e-07 W=5e-07 AD=3.75e-13 AS=3.75e-13
+ PD=2e-06 PS=2e-06
mXI10.XI26.MM28 N_XI10.XI26.NET31_XI10.XI26.MM28_d
+ N_XI10.XI26.CLKB_XI10.XI26.MM28_g N_XI10.XI26.NET58_XI10.XI26.MM28_s
+ N_VSS_XI10.XI0.XI0.MM2_b N_18 L=1.8e-07 W=5e-07 AD=3.75e-13 AS=3.75e-13
+ PD=2e-06 PS=2e-06
mXI10.XI24.MM28 N_XI10.XI24.NET31_XI10.XI24.MM28_d
+ N_XI10.XI24.CLKB_XI10.XI24.MM28_g N_XI10.XI24.NET58_XI10.XI24.MM28_s
+ N_VSS_XI10.XI0.XI0.MM2_b N_18 L=1.8e-07 W=5e-07 AD=3.75e-13 AS=3.75e-13
+ PD=2e-06 PS=2e-06
mXI10.XI27.MM28 N_XI10.XI27.NET31_XI10.XI27.MM28_d
+ N_XI10.XI27.CLKB_XI10.XI27.MM28_g N_XI10.XI27.NET58_XI10.XI27.MM28_s
+ N_VSS_XI10.XI0.XI0.MM2_b N_18 L=1.8e-07 W=5e-07 AD=3.75e-13 AS=3.75e-13
+ PD=2e-06 PS=2e-06
mXI10.XI22.MM28 N_XI10.XI22.NET31_XI10.XI22.MM28_d
+ N_XI10.XI22.CLKB_XI10.XI22.MM28_g N_XI10.XI22.NET58_XI10.XI22.MM28_s
+ N_VSS_XI10.XI0.XI0.MM2_b N_18 L=1.8e-07 W=5e-07 AD=3.75e-13 AS=3.75e-13
+ PD=2e-06 PS=2e-06
mXI10.XI21.MM28 N_XI10.XI21.NET31_XI10.XI21.MM28_d
+ N_XI10.XI21.CLKB_XI10.XI21.MM28_g N_XI10.XI21.NET58_XI10.XI21.MM28_s
+ N_VSS_XI10.XI0.XI0.MM2_b N_18 L=1.8e-07 W=5e-07 AD=3.75e-13 AS=3.75e-13
+ PD=2e-06 PS=2e-06
mXI10.XI23.MM28 N_XI10.XI23.NET31_XI10.XI23.MM28_d
+ N_XI10.XI23.CLKB_XI10.XI23.MM28_g N_XI10.XI23.NET58_XI10.XI23.MM28_s
+ N_VSS_XI10.XI0.XI0.MM2_b N_18 L=1.8e-07 W=5e-07 AD=3.75e-13 AS=3.75e-13
+ PD=2e-06 PS=2e-06
mXI10.XI19.MM28 N_XI10.XI19.NET31_XI10.XI19.MM28_d
+ N_XI10.XI19.CLKB_XI10.XI19.MM28_g N_XI10.XI19.NET58_XI10.XI19.MM28_s
+ N_VSS_XI10.XI0.XI0.MM2_b N_18 L=1.8e-07 W=5e-07 AD=3.75e-13 AS=3.75e-13
+ PD=2e-06 PS=2e-06
mXI10.XI20.MM28 N_XI10.XI20.NET31_XI10.XI20.MM28_d
+ N_XI10.XI20.CLKB_XI10.XI20.MM28_g N_XI10.XI20.NET58_XI10.XI20.MM28_s